 ****** HSPICE -- O-2018.09-SP2 win64 (Feb 25 2019) ******                      
  Copyright (c) 1986 - 2021 by Synopsys, Inc. All Rights Reserved.              
  This software and the associated documentation are proprietary
  to Synopsys, Inc. This software may only be used in accordance
  with the terms and conditions of a written license agreement with
  Synopsys, Inc. All other use, reproduction, or distribution of
  this software is strictly prohibited.
  Input File: nmos@50n.sp                                                       
  Command line options: C:\synopsys\Hspice_O-2018.09-SP2\WIN64\hspice.com -i nmos@50n.sp -o C:\sdsy\case1\nmos@50n.lis
  Start time: Wed Nov  3 00:03:22 2021
  lic:  
  lic: FLEXlm: SDK_11.7.3 
  lic: USER:   admin                HOSTNAME: DESKTOP-3KO7170 
  lic: HOSTID: "d83bbfb49802"       PID:      48540 
  lic: Using FLEXlm license file: 
  lic: 27000@DESKTOP-3KO7170 
  lic: Checkout 1 hspice 
  lic: License/Maintenance for hspice will expire on 30-dec-2029/2019.2019 
  lic: 1(in_use)/99(total) FLOATING license(s) on SERVER 27000@DESKTOP-3KO7170 
  lic:   
  
      

Element variations(Local):   element              parameter
 *****************************************************************
 ******  option summary
 ******
 runlvl  = 3         bypass  = 2.0000    
 ******
 

 ****** dc transfer curves tnom=  25.000 temp=  25.000 ******
x

 volt         current    voltage   
             m1         vin        
    0.         -9.2854n    0.      
    1.00000m  181.1564n    1.0000m 
    2.00000m  371.1623n    2.0000m 
    3.00000m  560.7325n    3.0000m 
    4.00000m  749.8670n    4.0000m 
    5.00000m  938.5659n    5.0000m 
    6.00000m    1.1268u    6.0000m 
    7.00000m    1.3147u    7.0000m 
    8.00000m    1.5021u    8.0000m 
    9.00000m    1.6890u    9.0000m 
   10.00000m    1.8755u   10.0000m 
   11.00000m    2.0616u   11.0000m 
   12.00000m    2.2473u   12.0000m 
   13.00000m    2.4325u   13.0000m 
   14.00000m    2.6173u   14.0000m 
   15.00000m    2.8016u   15.0000m 
   16.00000m    2.9855u   16.0000m 
   17.00000m    3.1690u   17.0000m 
   18.00000m    3.3520u   18.0000m 
   19.00000m    3.5346u   19.0000m 
   20.00000m    3.7168u   20.0000m 
   21.00000m    3.8985u   21.0000m 
   22.00000m    4.0798u   22.0000m 
   23.00000m    4.2607u   23.0000m 
   24.00000m    4.4411u   24.0000m 
   25.00000m    4.6211u   25.0000m 
   26.00000m    4.8006u   26.0000m 
   27.00000m    4.9797u   27.0000m 
   28.00000m    5.1584u   28.0000m 
   29.00000m    5.3367u   29.0000m 
   30.00000m    5.5145u   30.0000m 
   31.00000m    5.6918u   31.0000m 
   32.00000m    5.8688u   32.0000m 
   33.00000m    6.0453u   33.0000m 
   34.00000m    6.2213u   34.0000m 
   35.00000m    6.3970u   35.0000m 
   36.00000m    6.5722u   36.0000m 
   37.00000m    6.7469u   37.0000m 
   38.00000m    6.9212u   38.0000m 
   39.00000m    7.0951u   39.0000m 
   40.00000m    7.2686u   40.0000m 
   41.00000m    7.4416u   41.0000m 
   42.00000m    7.6142u   42.0000m 
   43.00000m    7.7863u   43.0000m 
   44.00000m    7.9580u   44.0000m 
   45.00000m    8.1293u   45.0000m 
   46.00000m    8.3002u   46.0000m 
   47.00000m    8.4706u   47.0000m 
   48.00000m    8.6405u   48.0000m 
   49.00000m    8.8101u   49.0000m 
   50.00000m    8.9792u   50.0000m 
   51.00000m    9.1478u   51.0000m 
   52.00000m    9.3160u   52.0000m 
   53.00000m    9.4838u   53.0000m 
   54.00000m    9.6512u   54.0000m 
   55.00000m    9.8181u   55.0000m 
   56.00000m    9.9846u   56.0000m 
   57.00000m   10.1507u   57.0000m 
   58.00000m   10.3163u   58.0000m 
   59.00000m   10.4815u   59.0000m 
   60.00000m   10.6462u   60.0000m 
   61.00000m   10.8105u   61.0000m 
   62.00000m   10.9744u   62.0000m 
   63.00000m   11.1378u   63.0000m 
   64.00000m   11.3008u   64.0000m 
   65.00000m   11.4634u   65.0000m 
   66.00000m   11.6255u   66.0000m 
   67.00000m   11.7872u   67.0000m 
   68.00000m   11.9485u   68.0000m 
   69.00000m   12.1093u   69.0000m 
   70.00000m   12.2697u   70.0000m 
   71.00000m   12.4297u   71.0000m 
   72.00000m   12.5892u   72.0000m 
   73.00000m   12.7483u   73.0000m 
   74.00000m   12.9070u   74.0000m 
   75.00000m   13.0652u   75.0000m 
   76.00000m   13.2230u   76.0000m 
   77.00000m   13.3803u   77.0000m 
   78.00000m   13.5373u   78.0000m 
   79.00000m   13.6937u   79.0000m 
   80.00000m   13.8498u   80.0000m 
   81.00000m   14.0054u   81.0000m 
   82.00000m   14.1606u   82.0000m 
   83.00000m   14.3153u   83.0000m 
   84.00000m   14.4696u   84.0000m 
   85.00000m   14.6235u   85.0000m 
   86.00000m   14.7770u   86.0000m 
   87.00000m   14.9300u   87.0000m 
   88.00000m   15.0825u   88.0000m 
   89.00000m   15.2347u   89.0000m 
   90.00000m   15.3864u   90.0000m 
   91.00000m   15.5377u   91.0000m 
   92.00000m   15.6885u   92.0000m 
   93.00000m   15.8389u   93.0000m 
   94.00000m   15.9889u   94.0000m 
   95.00000m   16.1384u   95.0000m 
   96.00000m   16.2875u   96.0000m 
   97.00000m   16.4362u   97.0000m 
   98.00000m   16.5844u   98.0000m 
   99.00000m   16.7322u   99.0000m 
  100.00000m   16.8796u  100.0000m 
  101.00000m   17.0265u  101.0000m 
  102.00000m   17.1730u  102.0000m 
  103.00000m   17.3190u  103.0000m 
  104.00000m   17.4647u  104.0000m 
  105.00000m   17.6099u  105.0000m 
  106.00000m   17.7546u  106.0000m 
  107.00000m   17.8989u  107.0000m 
  108.00000m   18.0428u  108.0000m 
  109.00000m   18.1863u  109.0000m 
  110.00000m   18.3293u  110.0000m 
  111.00000m   18.4719u  111.0000m 
  112.00000m   18.6141u  112.0000m 
  113.00000m   18.7558u  113.0000m 
  114.00000m   18.8971u  114.0000m 
  115.00000m   19.0379u  115.0000m 
  116.00000m   19.1784u  116.0000m 
  117.00000m   19.3183u  117.0000m 
  118.00000m   19.4579u  118.0000m 
  119.00000m   19.5970u  119.0000m 
  120.00000m   19.7357u  120.0000m 
  121.00000m   19.8740u  121.0000m 
  122.00000m   20.0118u  122.0000m 
  123.00000m   20.1492u  123.0000m 
  124.00000m   20.2861u  124.0000m 
  125.00000m   20.4227u  125.0000m 
  126.00000m   20.5587u  126.0000m 
  127.00000m   20.6944u  127.0000m 
  128.00000m   20.8296u  128.0000m 
  129.00000m   20.9644u  129.0000m 
  130.00000m   21.0988u  130.0000m 
  131.00000m   21.2327u  131.0000m 
  132.00000m   21.3662u  132.0000m 
  133.00000m   21.4992u  133.0000m 
  134.00000m   21.6319u  134.0000m 
  135.00000m   21.7641u  135.0000m 
  136.00000m   21.8958u  136.0000m 
  137.00000m   22.0272u  137.0000m 
  138.00000m   22.1580u  138.0000m 
  139.00000m   22.2885u  139.0000m 
  140.00000m   22.4185u  140.0000m 
  141.00000m   22.5481u  141.0000m 
  142.00000m   22.6773u  142.0000m 
  143.00000m   22.8060u  143.0000m 
  144.00000m   22.9343u  144.0000m 
  145.00000m   23.0622u  145.0000m 
  146.00000m   23.1896u  146.0000m 
  147.00000m   23.3166u  147.0000m 
  148.00000m   23.4432u  148.0000m 
  149.00000m   23.5693u  149.0000m 
  150.00000m   23.6950u  150.0000m 
  151.00000m   23.8203u  151.0000m 
  152.00000m   23.9452u  152.0000m 
  153.00000m   24.0696u  153.0000m 
  154.00000m   24.1936u  154.0000m 
  155.00000m   24.3171u  155.0000m 
  156.00000m   24.4402u  156.0000m 
  157.00000m   24.5629u  157.0000m 
  158.00000m   24.6852u  158.0000m 
  159.00000m   24.8070u  159.0000m 
  160.00000m   24.9284u  160.0000m 
  161.00000m   25.0493u  161.0000m 
  162.00000m   25.1698u  162.0000m 
  163.00000m   25.2899u  163.0000m 
  164.00000m   25.4096u  164.0000m 
  165.00000m   25.5288u  165.0000m 
  166.00000m   25.6476u  166.0000m 
  167.00000m   25.7660u  167.0000m 
  168.00000m   25.8839u  168.0000m 
  169.00000m   26.0015u  169.0000m 
  170.00000m   26.1185u  170.0000m 
  171.00000m   26.2352u  171.0000m 
  172.00000m   26.3514u  172.0000m 
  173.00000m   26.4672u  173.0000m 
  174.00000m   26.5825u  174.0000m 
  175.00000m   26.6975u  175.0000m 
  176.00000m   26.8119u  176.0000m 
  177.00000m   26.9260u  177.0000m 
  178.00000m   27.0396u  178.0000m 
  179.00000m   27.1528u  179.0000m 
  180.00000m   27.2656u  180.0000m 
  181.00000m   27.3780u  181.0000m 
  182.00000m   27.4899u  182.0000m 
  183.00000m   27.6014u  183.0000m 
  184.00000m   27.7124u  184.0000m 
  185.00000m   27.8230u  185.0000m 
  186.00000m   27.9332u  186.0000m 
  187.00000m   28.0430u  187.0000m 
  188.00000m   28.1523u  188.0000m 
  189.00000m   28.2612u  189.0000m 
  190.00000m   28.3697u  190.0000m 
  191.00000m   28.4777u  191.0000m 
  192.00000m   28.5854u  192.0000m 
  193.00000m   28.6925u  193.0000m 
  194.00000m   28.7993u  194.0000m 
  195.00000m   28.9056u  195.0000m 
  196.00000m   29.0115u  196.0000m 
  197.00000m   29.1170u  197.0000m 
  198.00000m   29.2220u  198.0000m 
  199.00000m   29.3267u  199.0000m 
  200.00000m   29.4308u  200.0000m 
  201.00000m   29.5346u  201.0000m 
  202.00000m   29.6379u  202.0000m 
  203.00000m   29.7408u  203.0000m 
  204.00000m   29.8433u  204.0000m 
  205.00000m   29.9454u  205.0000m 
  206.00000m   30.0470u  206.0000m 
  207.00000m   30.1482u  207.0000m 
  208.00000m   30.2489u  208.0000m 
  209.00000m   30.3493u  209.0000m 
  210.00000m   30.4492u  210.0000m 
  211.00000m   30.5486u  211.0000m 
  212.00000m   30.6477u  212.0000m 
  213.00000m   30.7463u  213.0000m 
  214.00000m   30.8445u  214.0000m 
  215.00000m   30.9423u  215.0000m 
  216.00000m   31.0396u  216.0000m 
  217.00000m   31.1366u  217.0000m 
  218.00000m   31.2331u  218.0000m 
  219.00000m   31.3291u  219.0000m 
  220.00000m   31.4248u  220.0000m 
  221.00000m   31.5200u  221.0000m 
  222.00000m   31.6148u  222.0000m 
  223.00000m   31.7091u  223.0000m 
  224.00000m   31.8031u  224.0000m 
  225.00000m   31.8966u  225.0000m 
  226.00000m   31.9897u  226.0000m 
  227.00000m   32.0823u  227.0000m 
  228.00000m   32.1746u  228.0000m 
  229.00000m   32.2664u  229.0000m 
  230.00000m   32.3578u  230.0000m 
  231.00000m   32.4487u  231.0000m 
  232.00000m   32.5393u  232.0000m 
  233.00000m   32.6294u  233.0000m 
  234.00000m   32.7191u  234.0000m 
  235.00000m   32.8083u  235.0000m 
  236.00000m   32.8972u  236.0000m 
  237.00000m   32.9856u  237.0000m 
  238.00000m   33.0736u  238.0000m 
  239.00000m   33.1612u  239.0000m 
  240.00000m   33.2483u  240.0000m 
  241.00000m   33.3351u  241.0000m 
  242.00000m   33.4214u  242.0000m 
  243.00000m   33.5072u  243.0000m 
  244.00000m   33.5927u  244.0000m 
  245.00000m   33.6777u  245.0000m 
  246.00000m   33.7624u  246.0000m 
  247.00000m   33.8466u  247.0000m 
  248.00000m   33.9303u  248.0000m 
  249.00000m   34.0137u  249.0000m 
  250.00000m   34.0966u  250.0000m 
  251.00000m   34.1791u  251.0000m 
  252.00000m   34.2612u  252.0000m 
  253.00000m   34.3429u  253.0000m 
  254.00000m   34.4241u  254.0000m 
  255.00000m   34.5050u  255.0000m 
  256.00000m   34.5854u  256.0000m 
  257.00000m   34.6654u  257.0000m 
  258.00000m   34.7449u  258.0000m 
  259.00000m   34.8241u  259.0000m 
  260.00000m   34.9028u  260.0000m 
  261.00000m   34.9812u  261.0000m 
  262.00000m   35.0590u  262.0000m 
  263.00000m   35.1365u  263.0000m 
  264.00000m   35.2136u  264.0000m 
  265.00000m   35.2902u  265.0000m 
  266.00000m   35.3665u  266.0000m 
  267.00000m   35.4423u  267.0000m 
  268.00000m   35.5177u  268.0000m 
  269.00000m   35.5927u  269.0000m 
  270.00000m   35.6672u  270.0000m 
  271.00000m   35.7414u  271.0000m 
  272.00000m   35.8151u  272.0000m 
  273.00000m   35.8884u  273.0000m 
  274.00000m   35.9613u  274.0000m 
  275.00000m   36.0338u  275.0000m 
  276.00000m   36.1059u  276.0000m 
  277.00000m   36.1776u  277.0000m 
  278.00000m   36.2488u  278.0000m 
  279.00000m   36.3196u  279.0000m 
  280.00000m   36.3901u  280.0000m 
  281.00000m   36.4601u  281.0000m 
  282.00000m   36.5297u  282.0000m 
  283.00000m   36.5989u  283.0000m 
  284.00000m   36.6676u  284.0000m 
  285.00000m   36.7360u  285.0000m 
  286.00000m   36.8040u  286.0000m 
  287.00000m   36.8715u  287.0000m 
  288.00000m   36.9387u  288.0000m 
  289.00000m   37.0054u  289.0000m 
  290.00000m   37.0717u  290.0000m 
  291.00000m   37.1376u  291.0000m 
  292.00000m   37.2031u  292.0000m 
  293.00000m   37.2682u  293.0000m 
  294.00000m   37.3329u  294.0000m 
  295.00000m   37.3972u  295.0000m 
  296.00000m   37.4611u  296.0000m 
  297.00000m   37.5245u  297.0000m 
  298.00000m   37.5876u  298.0000m 
  299.00000m   37.6503u  299.0000m 
  300.00000m   37.7125u  300.0000m 
  301.00000m   37.7744u  301.0000m 
  302.00000m   37.8359u  302.0000m 
  303.00000m   37.8969u  303.0000m 
  304.00000m   37.9576u  304.0000m 
  305.00000m   38.0178u  305.0000m 
  306.00000m   38.0777u  306.0000m 
  307.00000m   38.1371u  307.0000m 
  308.00000m   38.1961u  308.0000m 
  309.00000m   38.2548u  309.0000m 
  310.00000m   38.3130u  310.0000m 
  311.00000m   38.3709u  311.0000m 
  312.00000m   38.4284u  312.0000m 
  313.00000m   38.4854u  313.0000m 
  314.00000m   38.5421u  314.0000m 
  315.00000m   38.5984u  315.0000m 
  316.00000m   38.6542u  316.0000m 
  317.00000m   38.7097u  317.0000m 
  318.00000m   38.7648u  318.0000m 
  319.00000m   38.8195u  319.0000m 
  320.00000m   38.8738u  320.0000m 
  321.00000m   38.9277u  321.0000m 
  322.00000m   38.9812u  322.0000m 
  323.00000m   39.0344u  323.0000m 
  324.00000m   39.0871u  324.0000m 
  325.00000m   39.1395u  325.0000m 
  326.00000m   39.1915u  326.0000m 
  327.00000m   39.2430u  327.0000m 
  328.00000m   39.2942u  328.0000m 
  329.00000m   39.3451u  329.0000m 
  330.00000m   39.3955u  330.0000m 
  331.00000m   39.4455u  331.0000m 
  332.00000m   39.4952u  332.0000m 
  333.00000m   39.5445u  333.0000m 
  334.00000m   39.5934u  334.0000m 
  335.00000m   39.6419u  335.0000m 
  336.00000m   39.6901u  336.0000m 
  337.00000m   39.7378u  337.0000m 
  338.00000m   39.7852u  338.0000m 
  339.00000m   39.8323u  339.0000m 
  340.00000m   39.8789u  340.0000m 
  341.00000m   39.9252u  341.0000m 
  342.00000m   39.9711u  342.0000m 
  343.00000m   40.0166u  343.0000m 
  344.00000m   40.0618u  344.0000m 
  345.00000m   40.1065u  345.0000m 
  346.00000m   40.1510u  346.0000m 
  347.00000m   40.1950u  347.0000m 
  348.00000m   40.2387u  348.0000m 
  349.00000m   40.2820u  349.0000m 
  350.00000m   40.3250u  350.0000m 
  351.00000m   40.3676u  351.0000m 
  352.00000m   40.4098u  352.0000m 
  353.00000m   40.4517u  353.0000m 
  354.00000m   40.4932u  354.0000m 
  355.00000m   40.5344u  355.0000m 
  356.00000m   40.5752u  356.0000m 
  357.00000m   40.6157u  357.0000m 
  358.00000m   40.6558u  358.0000m 
  359.00000m   40.6955u  359.0000m 
  360.00000m   40.7349u  360.0000m 
  361.00000m   40.7740u  361.0000m 
  362.00000m   40.8127u  362.0000m 
  363.00000m   40.8510u  363.0000m 
  364.00000m   40.8891u  364.0000m 
  365.00000m   40.9267u  365.0000m 
  366.00000m   40.9641u  366.0000m 
  367.00000m   41.0010u  367.0000m 
  368.00000m   41.0377u  368.0000m 
  369.00000m   41.0740u  369.0000m 
  370.00000m   41.1100u  370.0000m 
  371.00000m   41.1456u  371.0000m 
  372.00000m   41.1809u  372.0000m 
  373.00000m   41.2159u  373.0000m 
  374.00000m   41.2506u  374.0000m 
  375.00000m   41.2849u  375.0000m 
  376.00000m   41.3189u  376.0000m 
  377.00000m   41.3526u  377.0000m 
  378.00000m   41.3859u  378.0000m 
  379.00000m   41.4190u  379.0000m 
  380.00000m   41.4517u  380.0000m 
  381.00000m   41.4841u  381.0000m 
  382.00000m   41.5162u  382.0000m 
  383.00000m   41.5480u  383.0000m 
  384.00000m   41.5794u  384.0000m 
  385.00000m   41.6106u  385.0000m 
  386.00000m   41.6414u  386.0000m 
  387.00000m   41.6720u  387.0000m 
  388.00000m   41.7022u  388.0000m 
  389.00000m   41.7321u  389.0000m 
  390.00000m   41.7618u  390.0000m 
  391.00000m   41.7911u  391.0000m 
  392.00000m   41.8202u  392.0000m 
  393.00000m   41.8489u  393.0000m 
  394.00000m   41.8774u  394.0000m 
  395.00000m   41.9056u  395.0000m 
  396.00000m   41.9335u  396.0000m 
  397.00000m   41.9611u  397.0000m 
  398.00000m   41.9884u  398.0000m 
  399.00000m   42.0154u  399.0000m 
  400.00000m   42.0422u  400.0000m 
  401.00000m   42.0687u  401.0000m 
  402.00000m   42.0949u  402.0000m 
  403.00000m   42.1208u  403.0000m 
  404.00000m   42.1465u  404.0000m 
  405.00000m   42.1719u  405.0000m 
  406.00000m   42.1970u  406.0000m 
  407.00000m   42.2219u  407.0000m 
  408.00000m   42.2465u  408.0000m 
  409.00000m   42.2709u  409.0000m 
  410.00000m   42.2950u  410.0000m 
  411.00000m   42.3189u  411.0000m 
  412.00000m   42.3425u  412.0000m 
  413.00000m   42.3658u  413.0000m 
  414.00000m   42.3889u  414.0000m 
  415.00000m   42.4118u  415.0000m 
  416.00000m   42.4344u  416.0000m 
  417.00000m   42.4568u  417.0000m 
  418.00000m   42.4789u  418.0000m 
  419.00000m   42.5009u  419.0000m 
  420.00000m   42.5225u  420.0000m 
  421.00000m   42.5440u  421.0000m 
  422.00000m   42.5652u  422.0000m 
  423.00000m   42.5862u  423.0000m 
  424.00000m   42.6070u  424.0000m 
  425.00000m   42.6275u  425.0000m 
  426.00000m   42.6479u  426.0000m 
  427.00000m   42.6680u  427.0000m 
  428.00000m   42.6879u  428.0000m 
  429.00000m   42.7076u  429.0000m 
  430.00000m   42.7271u  430.0000m 
  431.00000m   42.7464u  431.0000m 
  432.00000m   42.7655u  432.0000m 
  433.00000m   42.7844u  433.0000m 
  434.00000m   42.8031u  434.0000m 
  435.00000m   42.8216u  435.0000m 
  436.00000m   42.8399u  436.0000m 
  437.00000m   42.8580u  437.0000m 
  438.00000m   42.8759u  438.0000m 
  439.00000m   42.8937u  439.0000m 
  440.00000m   42.9112u  440.0000m 
  441.00000m   42.9286u  441.0000m 
  442.00000m   42.9458u  442.0000m 
  443.00000m   42.9628u  443.0000m 
  444.00000m   42.9796u  444.0000m 
  445.00000m   42.9963u  445.0000m 
  446.00000m   43.0128u  446.0000m 
  447.00000m   43.0291u  447.0000m 
  448.00000m   43.0453u  448.0000m 
  449.00000m   43.0613u  449.0000m 
  450.00000m   43.0772u  450.0000m 
  451.00000m   43.0929u  451.0000m 
  452.00000m   43.1084u  452.0000m 
  453.00000m   43.1238u  453.0000m 
  454.00000m   43.1390u  454.0000m 
  455.00000m   43.1541u  455.0000m 
  456.00000m   43.1690u  456.0000m 
  457.00000m   43.1838u  457.0000m 
  458.00000m   43.1984u  458.0000m 
  459.00000m   43.2129u  459.0000m 
  460.00000m   43.2273u  460.0000m 
  461.00000m   43.2415u  461.0000m 
  462.00000m   43.2556u  462.0000m 
  463.00000m   43.2696u  463.0000m 
  464.00000m   43.2834u  464.0000m 
  465.00000m   43.2971u  465.0000m 
  466.00000m   43.3107u  466.0000m 
  467.00000m   43.3241u  467.0000m 
  468.00000m   43.3375u  468.0000m 
  469.00000m   43.3507u  469.0000m 
  470.00000m   43.3638u  470.0000m 
  471.00000m   43.3767u  471.0000m 
  472.00000m   43.3896u  472.0000m 
  473.00000m   43.4023u  473.0000m 
  474.00000m   43.4150u  474.0000m 
  475.00000m   43.4275u  475.0000m 
  476.00000m   43.4399u  476.0000m 
  477.00000m   43.4522u  477.0000m 
  478.00000m   43.4644u  478.0000m 
  479.00000m   43.4765u  479.0000m 
  480.00000m   43.4885u  480.0000m 
  481.00000m   43.5004u  481.0000m 
  482.00000m   43.5122u  482.0000m 
  483.00000m   43.5240u  483.0000m 
  484.00000m   43.5356u  484.0000m 
  485.00000m   43.5471u  485.0000m 
  486.00000m   43.5585u  486.0000m 
  487.00000m   43.5699u  487.0000m 
  488.00000m   43.5811u  488.0000m 
  489.00000m   43.5923u  489.0000m 
  490.00000m   43.6034u  490.0000m 
  491.00000m   43.6144u  491.0000m 
  492.00000m   43.6253u  492.0000m 
  493.00000m   43.6361u  493.0000m 
  494.00000m   43.6469u  494.0000m 
  495.00000m   43.6576u  495.0000m 
  496.00000m   43.6682u  496.0000m 
  497.00000m   43.6787u  497.0000m 
  498.00000m   43.6891u  498.0000m 
  499.00000m   43.6995u  499.0000m 
  500.00000m   43.7098u  500.0000m 
  501.00000m   43.7201u  501.0000m 
  502.00000m   43.7302u  502.0000m 
  503.00000m   43.7403u  503.0000m 
  504.00000m   43.7504u  504.0000m 
  505.00000m   43.7603u  505.0000m 
  506.00000m   43.7702u  506.0000m 
  507.00000m   43.7801u  507.0000m 
  508.00000m   43.7899u  508.0000m 
  509.00000m   43.7996u  509.0000m 
  510.00000m   43.8092u  510.0000m 
  511.00000m   43.8188u  511.0000m 
  512.00000m   43.8284u  512.0000m 
  513.00000m   43.8379u  513.0000m 
  514.00000m   43.8473u  514.0000m 
  515.00000m   43.8566u  515.0000m 
  516.00000m   43.8660u  516.0000m 
  517.00000m   43.8752u  517.0000m 
  518.00000m   43.8844u  518.0000m 
  519.00000m   43.8936u  519.0000m 
  520.00000m   43.9027u  520.0000m 
  521.00000m   43.9118u  521.0000m 
  522.00000m   43.9208u  522.0000m 
  523.00000m   43.9298u  523.0000m 
  524.00000m   43.9387u  524.0000m 
  525.00000m   43.9476u  525.0000m 
  526.00000m   43.9564u  526.0000m 
  527.00000m   43.9652u  527.0000m 
  528.00000m   43.9739u  528.0000m 
  529.00000m   43.9826u  529.0000m 
  530.00000m   43.9913u  530.0000m 
  531.00000m   43.9999u  531.0000m 
  532.00000m   44.0084u  532.0000m 
  533.00000m   44.0170u  533.0000m 
  534.00000m   44.0255u  534.0000m 
  535.00000m   44.0339u  535.0000m 
  536.00000m   44.0423u  536.0000m 
  537.00000m   44.0507u  537.0000m 
  538.00000m   44.0591u  538.0000m 
  539.00000m   44.0674u  539.0000m 
  540.00000m   44.0756u  540.0000m 
  541.00000m   44.0839u  541.0000m 
  542.00000m   44.0921u  542.0000m 
  543.00000m   44.1002u  543.0000m 
  544.00000m   44.1084u  544.0000m 
  545.00000m   44.1165u  545.0000m 
  546.00000m   44.1245u  546.0000m 
  547.00000m   44.1326u  547.0000m 
  548.00000m   44.1406u  548.0000m 
  549.00000m   44.1486u  549.0000m 
  550.00000m   44.1565u  550.0000m 
  551.00000m   44.1644u  551.0000m 
  552.00000m   44.1723u  552.0000m 
  553.00000m   44.1802u  553.0000m 
  554.00000m   44.1880u  554.0000m 
  555.00000m   44.1958u  555.0000m 
  556.00000m   44.2036u  556.0000m 
  557.00000m   44.2113u  557.0000m 
  558.00000m   44.2191u  558.0000m 
  559.00000m   44.2268u  559.0000m 
  560.00000m   44.2345u  560.0000m 
  561.00000m   44.2421u  561.0000m 
  562.00000m   44.2497u  562.0000m 
  563.00000m   44.2573u  563.0000m 
  564.00000m   44.2649u  564.0000m 
  565.00000m   44.2725u  565.0000m 
  566.00000m   44.2800u  566.0000m 
  567.00000m   44.2875u  567.0000m 
  568.00000m   44.2950u  568.0000m 
  569.00000m   44.3025u  569.0000m 
  570.00000m   44.3099u  570.0000m 
  571.00000m   44.3173u  571.0000m 
  572.00000m   44.3247u  572.0000m 
  573.00000m   44.3321u  573.0000m 
  574.00000m   44.3395u  574.0000m 
  575.00000m   44.3468u  575.0000m 
  576.00000m   44.3541u  576.0000m 
  577.00000m   44.3614u  577.0000m 
  578.00000m   44.3687u  578.0000m 
  579.00000m   44.3760u  579.0000m 
  580.00000m   44.3832u  580.0000m 
  581.00000m   44.3905u  581.0000m 
  582.00000m   44.3977u  582.0000m 
  583.00000m   44.4049u  583.0000m 
  584.00000m   44.4121u  584.0000m 
  585.00000m   44.4192u  585.0000m 
  586.00000m   44.4264u  586.0000m 
  587.00000m   44.4335u  587.0000m 
  588.00000m   44.4406u  588.0000m 
  589.00000m   44.4477u  589.0000m 
  590.00000m   44.4548u  590.0000m 
  591.00000m   44.4619u  591.0000m 
  592.00000m   44.4689u  592.0000m 
  593.00000m   44.4759u  593.0000m 
  594.00000m   44.4830u  594.0000m 
  595.00000m   44.4900u  595.0000m 
  596.00000m   44.4970u  596.0000m 
  597.00000m   44.5039u  597.0000m 
  598.00000m   44.5109u  598.0000m 
  599.00000m   44.5179u  599.0000m 
  600.00000m   44.5248u  600.0000m 
  601.00000m   44.5317u  601.0000m 
  602.00000m   44.5386u  602.0000m 
  603.00000m   44.5455u  603.0000m 
  604.00000m   44.5524u  604.0000m 
  605.00000m   44.5593u  605.0000m 
  606.00000m   44.5661u  606.0000m 
  607.00000m   44.5730u  607.0000m 
  608.00000m   44.5798u  608.0000m 
  609.00000m   44.5866u  609.0000m 
  610.00000m   44.5935u  610.0000m 
  611.00000m   44.6003u  611.0000m 
  612.00000m   44.6070u  612.0000m 
  613.00000m   44.6138u  613.0000m 
  614.00000m   44.6206u  614.0000m 
  615.00000m   44.6274u  615.0000m 
  616.00000m   44.6341u  616.0000m 
  617.00000m   44.6408u  617.0000m 
  618.00000m   44.6476u  618.0000m 
  619.00000m   44.6543u  619.0000m 
  620.00000m   44.6610u  620.0000m 
  621.00000m   44.6677u  621.0000m 
  622.00000m   44.6744u  622.0000m 
  623.00000m   44.6810u  623.0000m 
  624.00000m   44.6877u  624.0000m 
  625.00000m   44.6944u  625.0000m 
  626.00000m   44.7010u  626.0000m 
  627.00000m   44.7076u  627.0000m 
  628.00000m   44.7143u  628.0000m 
  629.00000m   44.7209u  629.0000m 
  630.00000m   44.7275u  630.0000m 
  631.00000m   44.7341u  631.0000m 
  632.00000m   44.7407u  632.0000m 
  633.00000m   44.7473u  633.0000m 
  634.00000m   44.7538u  634.0000m 
  635.00000m   44.7604u  635.0000m 
  636.00000m   44.7670u  636.0000m 
  637.00000m   44.7735u  637.0000m 
  638.00000m   44.7801u  638.0000m 
  639.00000m   44.7866u  639.0000m 
  640.00000m   44.7931u  640.0000m 
  641.00000m   44.7997u  641.0000m 
  642.00000m   44.8062u  642.0000m 
  643.00000m   44.8127u  643.0000m 
  644.00000m   44.8192u  644.0000m 
  645.00000m   44.8257u  645.0000m 
  646.00000m   44.8321u  646.0000m 
  647.00000m   44.8386u  647.0000m 
  648.00000m   44.8451u  648.0000m 
  649.00000m   44.8515u  649.0000m 
  650.00000m   44.8580u  650.0000m 
  651.00000m   44.8644u  651.0000m 
  652.00000m   44.8709u  652.0000m 
  653.00000m   44.8773u  653.0000m 
  654.00000m   44.8838u  654.0000m 
  655.00000m   44.8902u  655.0000m 
  656.00000m   44.8966u  656.0000m 
  657.00000m   44.9030u  657.0000m 
  658.00000m   44.9094u  658.0000m 
  659.00000m   44.9158u  659.0000m 
  660.00000m   44.9222u  660.0000m 
  661.00000m   44.9286u  661.0000m 
  662.00000m   44.9349u  662.0000m 
  663.00000m   44.9413u  663.0000m 
  664.00000m   44.9477u  664.0000m 
  665.00000m   44.9540u  665.0000m 
  666.00000m   44.9604u  666.0000m 
  667.00000m   44.9668u  667.0000m 
  668.00000m   44.9731u  668.0000m 
  669.00000m   44.9794u  669.0000m 
  670.00000m   44.9858u  670.0000m 
  671.00000m   44.9921u  671.0000m 
  672.00000m   44.9984u  672.0000m 
  673.00000m   45.0047u  673.0000m 
  674.00000m   45.0110u  674.0000m 
  675.00000m   45.0173u  675.0000m 
  676.00000m   45.0236u  676.0000m 
  677.00000m   45.0299u  677.0000m 
  678.00000m   45.0362u  678.0000m 
  679.00000m   45.0425u  679.0000m 
  680.00000m   45.0488u  680.0000m 
  681.00000m   45.0551u  681.0000m 
  682.00000m   45.0613u  682.0000m 
  683.00000m   45.0676u  683.0000m 
  684.00000m   45.0739u  684.0000m 
  685.00000m   45.0801u  685.0000m 
  686.00000m   45.0864u  686.0000m 
  687.00000m   45.0926u  687.0000m 
  688.00000m   45.0989u  688.0000m 
  689.00000m   45.1051u  689.0000m 
  690.00000m   45.1113u  690.0000m 
  691.00000m   45.1176u  691.0000m 
  692.00000m   45.1238u  692.0000m 
  693.00000m   45.1300u  693.0000m 
  694.00000m   45.1362u  694.0000m 
  695.00000m   45.1424u  695.0000m 
  696.00000m   45.1487u  696.0000m 
  697.00000m   45.1549u  697.0000m 
  698.00000m   45.1611u  698.0000m 
  699.00000m   45.1673u  699.0000m 
  700.00000m   45.1734u  700.0000m 
  701.00000m   45.1796u  701.0000m 
  702.00000m   45.1858u  702.0000m 
  703.00000m   45.1920u  703.0000m 
  704.00000m   45.1982u  704.0000m 
  705.00000m   45.2043u  705.0000m 
  706.00000m   45.2105u  706.0000m 
  707.00000m   45.2167u  707.0000m 
  708.00000m   45.2228u  708.0000m 
  709.00000m   45.2290u  709.0000m 
  710.00000m   45.2351u  710.0000m 
  711.00000m   45.2413u  711.0000m 
  712.00000m   45.2474u  712.0000m 
  713.00000m   45.2536u  713.0000m 
  714.00000m   45.2597u  714.0000m 
  715.00000m   45.2659u  715.0000m 
  716.00000m   45.2720u  716.0000m 
  717.00000m   45.2781u  717.0000m 
  718.00000m   45.2842u  718.0000m 
  719.00000m   45.2904u  719.0000m 
  720.00000m   45.2965u  720.0000m 
  721.00000m   45.3026u  721.0000m 
  722.00000m   45.3087u  722.0000m 
  723.00000m   45.3148u  723.0000m 
  724.00000m   45.3209u  724.0000m 
  725.00000m   45.3270u  725.0000m 
  726.00000m   45.3331u  726.0000m 
  727.00000m   45.3392u  727.0000m 
  728.00000m   45.3453u  728.0000m 
  729.00000m   45.3514u  729.0000m 
  730.00000m   45.3575u  730.0000m 
  731.00000m   45.3636u  731.0000m 
  732.00000m   45.3697u  732.0000m 
  733.00000m   45.3757u  733.0000m 
  734.00000m   45.3818u  734.0000m 
  735.00000m   45.3879u  735.0000m 
  736.00000m   45.3939u  736.0000m 
  737.00000m   45.4000u  737.0000m 
  738.00000m   45.4061u  738.0000m 
  739.00000m   45.4121u  739.0000m 
  740.00000m   45.4182u  740.0000m 
  741.00000m   45.4242u  741.0000m 
  742.00000m   45.4303u  742.0000m 
  743.00000m   45.4363u  743.0000m 
  744.00000m   45.4424u  744.0000m 
  745.00000m   45.4484u  745.0000m 
  746.00000m   45.4545u  746.0000m 
  747.00000m   45.4605u  747.0000m 
  748.00000m   45.4665u  748.0000m 
  749.00000m   45.4726u  749.0000m 
  750.00000m   45.4786u  750.0000m 
  751.00000m   45.4846u  751.0000m 
  752.00000m   45.4907u  752.0000m 
  753.00000m   45.4967u  753.0000m 
  754.00000m   45.5027u  754.0000m 
  755.00000m   45.5087u  755.0000m 
  756.00000m   45.5147u  756.0000m 
  757.00000m   45.5207u  757.0000m 
  758.00000m   45.5267u  758.0000m 
  759.00000m   45.5327u  759.0000m 
  760.00000m   45.5388u  760.0000m 
  761.00000m   45.5448u  761.0000m 
  762.00000m   45.5508u  762.0000m 
  763.00000m   45.5567u  763.0000m 
  764.00000m   45.5627u  764.0000m 
  765.00000m   45.5687u  765.0000m 
  766.00000m   45.5747u  766.0000m 
  767.00000m   45.5807u  767.0000m 
  768.00000m   45.5867u  768.0000m 
  769.00000m   45.5927u  769.0000m 
  770.00000m   45.5987u  770.0000m 
  771.00000m   45.6046u  771.0000m 
  772.00000m   45.6106u  772.0000m 
  773.00000m   45.6166u  773.0000m 
  774.00000m   45.6226u  774.0000m 
  775.00000m   45.6285u  775.0000m 
  776.00000m   45.6345u  776.0000m 
  777.00000m   45.6405u  777.0000m 
  778.00000m   45.6464u  778.0000m 
  779.00000m   45.6524u  779.0000m 
  780.00000m   45.6583u  780.0000m 
  781.00000m   45.6643u  781.0000m 
  782.00000m   45.6702u  782.0000m 
  783.00000m   45.6762u  783.0000m 
  784.00000m   45.6821u  784.0000m 
  785.00000m   45.6881u  785.0000m 
  786.00000m   45.6940u  786.0000m 
  787.00000m   45.7000u  787.0000m 
  788.00000m   45.7059u  788.0000m 
  789.00000m   45.7119u  789.0000m 
  790.00000m   45.7178u  790.0000m 
  791.00000m   45.7237u  791.0000m 
  792.00000m   45.7297u  792.0000m 
  793.00000m   45.7356u  793.0000m 
  794.00000m   45.7415u  794.0000m 
  795.00000m   45.7474u  795.0000m 
  796.00000m   45.7534u  796.0000m 
  797.00000m   45.7593u  797.0000m 
  798.00000m   45.7652u  798.0000m 
  799.00000m   45.7711u  799.0000m 
  800.00000m   45.7771u  800.0000m 
  801.00000m   45.7830u  801.0000m 
  802.00000m   45.7889u  802.0000m 
  803.00000m   45.7948u  803.0000m 
  804.00000m   45.8007u  804.0000m 
  805.00000m   45.8066u  805.0000m 
  806.00000m   45.8125u  806.0000m 
  807.00000m   45.8184u  807.0000m 
  808.00000m   45.8243u  808.0000m 
  809.00000m   45.8302u  809.0000m 
  810.00000m   45.8361u  810.0000m 
  811.00000m   45.8420u  811.0000m 
  812.00000m   45.8479u  812.0000m 
  813.00000m   45.8538u  813.0000m 
  814.00000m   45.8597u  814.0000m 
  815.00000m   45.8656u  815.0000m 
  816.00000m   45.8715u  816.0000m 
  817.00000m   45.8774u  817.0000m 
  818.00000m   45.8832u  818.0000m 
  819.00000m   45.8891u  819.0000m 
  820.00000m   45.8950u  820.0000m 
  821.00000m   45.9009u  821.0000m 
  822.00000m   45.9068u  822.0000m 
  823.00000m   45.9126u  823.0000m 
  824.00000m   45.9185u  824.0000m 
  825.00000m   45.9244u  825.0000m 
  826.00000m   45.9303u  826.0000m 
  827.00000m   45.9361u  827.0000m 
  828.00000m   45.9420u  828.0000m 
  829.00000m   45.9479u  829.0000m 
  830.00000m   45.9537u  830.0000m 
  831.00000m   45.9596u  831.0000m 
  832.00000m   45.9654u  832.0000m 
  833.00000m   45.9713u  833.0000m 
  834.00000m   45.9772u  834.0000m 
  835.00000m   45.9830u  835.0000m 
  836.00000m   45.9889u  836.0000m 
  837.00000m   45.9947u  837.0000m 
  838.00000m   46.0006u  838.0000m 
  839.00000m   46.0064u  839.0000m 
  840.00000m   46.0123u  840.0000m 
  841.00000m   46.0181u  841.0000m 
  842.00000m   46.0240u  842.0000m 
  843.00000m   46.0298u  843.0000m 
  844.00000m   46.0357u  844.0000m 
  845.00000m   46.0415u  845.0000m 
  846.00000m   46.0473u  846.0000m 
  847.00000m   46.0532u  847.0000m 
  848.00000m   46.0590u  848.0000m 
  849.00000m   46.0648u  849.0000m 
  850.00000m   46.0707u  850.0000m 
  851.00000m   46.0765u  851.0000m 
  852.00000m   46.0823u  852.0000m 
  853.00000m   46.0882u  853.0000m 
  854.00000m   46.0940u  854.0000m 
  855.00000m   46.0998u  855.0000m 
  856.00000m   46.1056u  856.0000m 
  857.00000m   46.1115u  857.0000m 
  858.00000m   46.1173u  858.0000m 
  859.00000m   46.1231u  859.0000m 
  860.00000m   46.1289u  860.0000m 
  861.00000m   46.1347u  861.0000m 
  862.00000m   46.1406u  862.0000m 
  863.00000m   46.1464u  863.0000m 
  864.00000m   46.1522u  864.0000m 
  865.00000m   46.1580u  865.0000m 
  866.00000m   46.1638u  866.0000m 
  867.00000m   46.1696u  867.0000m 
  868.00000m   46.1754u  868.0000m 
  869.00000m   46.1812u  869.0000m 
  870.00000m   46.1870u  870.0000m 
  871.00000m   46.1928u  871.0000m 
  872.00000m   46.1986u  872.0000m 
  873.00000m   46.2044u  873.0000m 
  874.00000m   46.2102u  874.0000m 
  875.00000m   46.2160u  875.0000m 
  876.00000m   46.2218u  876.0000m 
  877.00000m   46.2276u  877.0000m 
  878.00000m   46.2334u  878.0000m 
  879.00000m   46.2392u  879.0000m 
  880.00000m   46.2450u  880.0000m 
  881.00000m   46.2508u  881.0000m 
  882.00000m   46.2566u  882.0000m 
  883.00000m   46.2624u  883.0000m 
  884.00000m   46.2682u  884.0000m 
  885.00000m   46.2739u  885.0000m 
  886.00000m   46.2797u  886.0000m 
  887.00000m   46.2855u  887.0000m 
  888.00000m   46.2913u  888.0000m 
  889.00000m   46.2971u  889.0000m 
  890.00000m   46.3028u  890.0000m 
  891.00000m   46.3086u  891.0000m 
  892.00000m   46.3144u  892.0000m 
  893.00000m   46.3202u  893.0000m 
  894.00000m   46.3259u  894.0000m 
  895.00000m   46.3317u  895.0000m 
  896.00000m   46.3375u  896.0000m 
  897.00000m   46.3433u  897.0000m 
  898.00000m   46.3490u  898.0000m 
  899.00000m   46.3548u  899.0000m 
  900.00000m   46.3606u  900.0000m 
  901.00000m   46.3663u  901.0000m 
  902.00000m   46.3721u  902.0000m 
  903.00000m   46.3779u  903.0000m 
  904.00000m   46.3836u  904.0000m 
  905.00000m   46.3894u  905.0000m 
  906.00000m   46.3951u  906.0000m 
  907.00000m   46.4009u  907.0000m 
  908.00000m   46.4066u  908.0000m 
  909.00000m   46.4124u  909.0000m 
  910.00000m   46.4182u  910.0000m 
  911.00000m   46.4239u  911.0000m 
  912.00000m   46.4297u  912.0000m 
  913.00000m   46.4354u  913.0000m 
  914.00000m   46.4412u  914.0000m 
  915.00000m   46.4469u  915.0000m 
  916.00000m   46.4526u  916.0000m 
  917.00000m   46.4584u  917.0000m 
  918.00000m   46.4641u  918.0000m 
  919.00000m   46.4699u  919.0000m 
  920.00000m   46.4756u  920.0000m 
  921.00000m   46.4814u  921.0000m 
  922.00000m   46.4871u  922.0000m 
  923.00000m   46.4928u  923.0000m 
  924.00000m   46.4986u  924.0000m 
  925.00000m   46.5043u  925.0000m 
  926.00000m   46.5101u  926.0000m 
  927.00000m   46.5158u  927.0000m 
  928.00000m   46.5215u  928.0000m 
  929.00000m   46.5273u  929.0000m 
  930.00000m   46.5330u  930.0000m 
  931.00000m   46.5387u  931.0000m 
  932.00000m   46.5444u  932.0000m 
  933.00000m   46.5502u  933.0000m 
  934.00000m   46.5559u  934.0000m 
  935.00000m   46.5616u  935.0000m 
  936.00000m   46.5673u  936.0000m 
  937.00000m   46.5731u  937.0000m 
  938.00000m   46.5788u  938.0000m 
  939.00000m   46.5845u  939.0000m 
  940.00000m   46.5902u  940.0000m 
  941.00000m   46.5959u  941.0000m 
  942.00000m   46.6017u  942.0000m 
  943.00000m   46.6074u  943.0000m 
  944.00000m   46.6131u  944.0000m 
  945.00000m   46.6188u  945.0000m 
  946.00000m   46.6245u  946.0000m 
  947.00000m   46.6302u  947.0000m 
  948.00000m   46.6359u  948.0000m 
  949.00000m   46.6417u  949.0000m 
  950.00000m   46.6474u  950.0000m 
  951.00000m   46.6531u  951.0000m 
  952.00000m   46.6588u  952.0000m 
  953.00000m   46.6645u  953.0000m 
  954.00000m   46.6702u  954.0000m 
  955.00000m   46.6759u  955.0000m 
  956.00000m   46.6816u  956.0000m 
  957.00000m   46.6873u  957.0000m 
  958.00000m   46.6930u  958.0000m 
  959.00000m   46.6987u  959.0000m 
  960.00000m   46.7044u  960.0000m 
  961.00000m   46.7101u  961.0000m 
  962.00000m   46.7158u  962.0000m 
  963.00000m   46.7215u  963.0000m 
  964.00000m   46.7272u  964.0000m 
  965.00000m   46.7329u  965.0000m 
  966.00000m   46.7386u  966.0000m 
  967.00000m   46.7443u  967.0000m 
  968.00000m   46.7499u  968.0000m 
  969.00000m   46.7556u  969.0000m 
  970.00000m   46.7613u  970.0000m 
  971.00000m   46.7670u  971.0000m 
  972.00000m   46.7727u  972.0000m 
  973.00000m   46.7784u  973.0000m 
  974.00000m   46.7841u  974.0000m 
  975.00000m   46.7897u  975.0000m 
  976.00000m   46.7954u  976.0000m 
  977.00000m   46.8011u  977.0000m 
  978.00000m   46.8068u  978.0000m 
  979.00000m   46.8125u  979.0000m 
  980.00000m   46.8182u  980.0000m 
  981.00000m   46.8238u  981.0000m 
  982.00000m   46.8295u  982.0000m 
  983.00000m   46.8352u  983.0000m 
  984.00000m   46.8409u  984.0000m 
  985.00000m   46.8465u  985.0000m 
  986.00000m   46.8522u  986.0000m 
  987.00000m   46.8579u  987.0000m 
  988.00000m   46.8635u  988.0000m 
  989.00000m   46.8692u  989.0000m 
  990.00000m   46.8749u  990.0000m 
  991.00000m   46.8805u  991.0000m 
  992.00000m   46.8862u  992.0000m 
  993.00000m   46.8919u  993.0000m 
  994.00000m   46.8975u  994.0000m 
  995.00000m   46.9032u  995.0000m 
  996.00000m   46.9089u  996.0000m 
  997.00000m   46.9145u  997.0000m 
  998.00000m   46.9202u  998.0000m 
  999.00000m   46.9259u  999.0000m 
    1.00000    46.9315u    1.0000  
y

          ***** job concluded
1****** HSPICE -- O-2018.09-SP2 win64 (Feb 25 2019) ******                      
 ******  
 

 ****** job statistics summary tnom=  25.000 temp=  25.000 ******

  ******  HSPICE Threads Information  ******

  Command Line Threads Count :     1
  Available CPU Count        :     8
  Actual Threads Count       :     1


  ******  Circuit Statistics  ******
  # nodes       =       7 # elements   =       3
  # resistors   =       0 # capacitors =       0 # inductors   =       0
  # mutual_inds =       0 # vccs       =       0 # vcvs        =       0
  # cccs        =       0 # ccvs       =       0 # volt_srcs   =       2
  # curr_srcs   =       0 # diodes     =       0 # bjts        =       0
  # jfets       =       0 # mosfets    =       1 # U elements  =       0
  # T elements  =       0 # W elements =       0 # B elements  =       0
  # S elements  =       0 # P elements =       0 # va device   =       0
  # vector_srcs =       0 # N elements =       0


  ******  Runtime Statistics (seconds)  ******

  analysis           time    # points   tot. iter  conv.iter
  op point           0.00           1           0
  dc sweep           0.03        1001        2004
  readin             0.01
  errchk             0.00
  setup              0.00
  output             0.00


           peak memory used         61.60 megabytes
           total cpu time            0.05 seconds
           total elapsed time        0.06 seconds
           job started at     00:03:22 11/03/2021
           job ended   at     00:03:22 11/03/2021


  
      

Element variations(Local):   element              parameter
 *****************************************************************
 ******  option summary
 ******
 runlvl  = 3         bypass  = 2.0000    
 ******
 

 ****** dc transfer curves tnom=  25.000 temp=  25.000 ******
x

 volt         current    voltage   
             m1         vin        
    0.         -1.3094n    0.      
    1.00000m  166.1534n    1.0000m 
    2.00000m  333.2153n    2.0000m 
    3.00000m  499.8762n    3.0000m 
    4.00000m  666.1362n    4.0000m 
    5.00000m  831.9953n    5.0000m 
    6.00000m  997.4536n    6.0000m 
    7.00000m    1.1625u    7.0000m 
    8.00000m    1.3272u    8.0000m 
    9.00000m    1.4914u    9.0000m 
   10.00000m    1.6553u   10.0000m 
   11.00000m    1.8187u   11.0000m 
   12.00000m    1.9818u   12.0000m 
   13.00000m    2.1444u   13.0000m 
   14.00000m    2.3067u   14.0000m 
   15.00000m    2.4685u   15.0000m 
   16.00000m    2.6300u   16.0000m 
   17.00000m    2.7910u   17.0000m 
   18.00000m    2.9517u   18.0000m 
   19.00000m    3.1119u   19.0000m 
   20.00000m    3.2718u   20.0000m 
   21.00000m    3.4312u   21.0000m 
   22.00000m    3.5903u   22.0000m 
   23.00000m    3.7489u   23.0000m 
   24.00000m    3.9072u   24.0000m 
   25.00000m    4.0650u   25.0000m 
   26.00000m    4.2225u   26.0000m 
   27.00000m    4.3795u   27.0000m 
   28.00000m    4.5362u   28.0000m 
   29.00000m    4.6924u   29.0000m 
   30.00000m    4.8483u   30.0000m 
   31.00000m    5.0037u   31.0000m 
   32.00000m    5.1588u   32.0000m 
   33.00000m    5.3134u   33.0000m 
   34.00000m    5.4677u   34.0000m 
   35.00000m    5.6215u   35.0000m 
   36.00000m    5.7749u   36.0000m 
   37.00000m    5.9280u   37.0000m 
   38.00000m    6.0806u   38.0000m 
   39.00000m    6.2329u   39.0000m 
   40.00000m    6.3847u   40.0000m 
   41.00000m    6.5362u   41.0000m 
   42.00000m    6.6872u   42.0000m 
   43.00000m    6.8379u   43.0000m 
   44.00000m    6.9881u   44.0000m 
   45.00000m    7.1380u   45.0000m 
   46.00000m    7.2874u   46.0000m 
   47.00000m    7.4365u   47.0000m 
   48.00000m    7.5851u   48.0000m 
   49.00000m    7.7334u   49.0000m 
   50.00000m    7.8812u   50.0000m 
   51.00000m    8.0287u   51.0000m 
   52.00000m    8.1757u   52.0000m 
   53.00000m    8.3224u   53.0000m 
   54.00000m    8.4686u   54.0000m 
   55.00000m    8.6145u   55.0000m 
   56.00000m    8.7599u   56.0000m 
   57.00000m    8.9050u   57.0000m 
   58.00000m    9.0496u   58.0000m 
   59.00000m    9.1939u   59.0000m 
   60.00000m    9.3378u   60.0000m 
   61.00000m    9.4812u   61.0000m 
   62.00000m    9.6243u   62.0000m 
   63.00000m    9.7669u   63.0000m 
   64.00000m    9.9092u   64.0000m 
   65.00000m   10.0510u   65.0000m 
   66.00000m   10.1925u   66.0000m 
   67.00000m   10.3336u   67.0000m 
   68.00000m   10.4742u   68.0000m 
   69.00000m   10.6145u   69.0000m 
   70.00000m   10.7544u   70.0000m 
   71.00000m   10.8938u   71.0000m 
   72.00000m   11.0329u   72.0000m 
   73.00000m   11.1716u   73.0000m 
   74.00000m   11.3099u   74.0000m 
   75.00000m   11.4477u   75.0000m 
   76.00000m   11.5852u   76.0000m 
   77.00000m   11.7223u   77.0000m 
   78.00000m   11.8590u   78.0000m 
   79.00000m   11.9952u   79.0000m 
   80.00000m   12.1311u   80.0000m 
   81.00000m   12.2666u   81.0000m 
   82.00000m   12.4017u   82.0000m 
   83.00000m   12.5364u   83.0000m 
   84.00000m   12.6707u   84.0000m 
   85.00000m   12.8046u   85.0000m 
   86.00000m   12.9381u   86.0000m 
   87.00000m   13.0712u   87.0000m 
   88.00000m   13.2039u   88.0000m 
   89.00000m   13.3362u   89.0000m 
   90.00000m   13.4681u   90.0000m 
   91.00000m   13.5996u   91.0000m 
   92.00000m   13.7307u   92.0000m 
   93.00000m   13.8614u   93.0000m 
   94.00000m   13.9917u   94.0000m 
   95.00000m   14.1216u   95.0000m 
   96.00000m   14.2511u   96.0000m 
   97.00000m   14.3802u   97.0000m 
   98.00000m   14.5089u   98.0000m 
   99.00000m   14.6373u   99.0000m 
  100.00000m   14.7652u  100.0000m 
  101.00000m   14.8927u  101.0000m 
  102.00000m   15.0198u  102.0000m 
  103.00000m   15.1466u  103.0000m 
  104.00000m   15.2729u  104.0000m 
  105.00000m   15.3989u  105.0000m 
  106.00000m   15.5244u  106.0000m 
  107.00000m   15.6495u  107.0000m 
  108.00000m   15.7743u  108.0000m 
  109.00000m   15.8986u  109.0000m 
  110.00000m   16.0226u  110.0000m 
  111.00000m   16.1461u  111.0000m 
  112.00000m   16.2693u  112.0000m 
  113.00000m   16.3921u  113.0000m 
  114.00000m   16.5144u  114.0000m 
  115.00000m   16.6364u  115.0000m 
  116.00000m   16.7580u  116.0000m 
  117.00000m   16.8791u  117.0000m 
  118.00000m   16.9999u  118.0000m 
  119.00000m   17.1203u  119.0000m 
  120.00000m   17.2403u  120.0000m 
  121.00000m   17.3599u  121.0000m 
  122.00000m   17.4791u  122.0000m 
  123.00000m   17.5979u  123.0000m 
  124.00000m   17.7163u  124.0000m 
  125.00000m   17.8343u  125.0000m 
  126.00000m   17.9519u  126.0000m 
  127.00000m   18.0691u  127.0000m 
  128.00000m   18.1859u  128.0000m 
  129.00000m   18.3023u  129.0000m 
  130.00000m   18.4183u  130.0000m 
  131.00000m   18.5340u  131.0000m 
  132.00000m   18.6492u  132.0000m 
  133.00000m   18.7640u  133.0000m 
  134.00000m   18.8785u  134.0000m 
  135.00000m   18.9925u  135.0000m 
  136.00000m   19.1062u  136.0000m 
  137.00000m   19.2194u  137.0000m 
  138.00000m   19.3323u  138.0000m 
  139.00000m   19.4447u  139.0000m 
  140.00000m   19.5568u  140.0000m 
  141.00000m   19.6685u  141.0000m 
  142.00000m   19.7798u  142.0000m 
  143.00000m   19.8907u  143.0000m 
  144.00000m   20.0011u  144.0000m 
  145.00000m   20.1112u  145.0000m 
  146.00000m   20.2209u  146.0000m 
  147.00000m   20.3302u  147.0000m 
  148.00000m   20.4391u  148.0000m 
  149.00000m   20.5477u  149.0000m 
  150.00000m   20.6558u  150.0000m 
  151.00000m   20.7635u  151.0000m 
  152.00000m   20.8708u  152.0000m 
  153.00000m   20.9778u  153.0000m 
  154.00000m   21.0843u  154.0000m 
  155.00000m   21.1905u  155.0000m 
  156.00000m   21.2962u  156.0000m 
  157.00000m   21.4016u  157.0000m 
  158.00000m   21.5065u  158.0000m 
  159.00000m   21.6111u  159.0000m 
  160.00000m   21.7153u  160.0000m 
  161.00000m   21.8191u  161.0000m 
  162.00000m   21.9225u  162.0000m 
  163.00000m   22.0254u  163.0000m 
  164.00000m   22.1281u  164.0000m 
  165.00000m   22.2303u  165.0000m 
  166.00000m   22.3321u  166.0000m 
  167.00000m   22.4335u  167.0000m 
  168.00000m   22.5345u  168.0000m 
  169.00000m   22.6352u  169.0000m 
  170.00000m   22.7354u  170.0000m 
  171.00000m   22.8353u  171.0000m 
  172.00000m   22.9347u  172.0000m 
  173.00000m   23.0338u  173.0000m 
  174.00000m   23.1325u  174.0000m 
  175.00000m   23.2307u  175.0000m 
  176.00000m   23.3286u  176.0000m 
  177.00000m   23.4261u  177.0000m 
  178.00000m   23.5232u  178.0000m 
  179.00000m   23.6199u  179.0000m 
  180.00000m   23.7163u  180.0000m 
  181.00000m   23.8122u  181.0000m 
  182.00000m   23.9077u  182.0000m 
  183.00000m   24.0029u  183.0000m 
  184.00000m   24.0976u  184.0000m 
  185.00000m   24.1920u  185.0000m 
  186.00000m   24.2859u  186.0000m 
  187.00000m   24.3795u  187.0000m 
  188.00000m   24.4727u  188.0000m 
  189.00000m   24.5655u  189.0000m 
  190.00000m   24.6579u  190.0000m 
  191.00000m   24.7499u  191.0000m 
  192.00000m   24.8415u  192.0000m 
  193.00000m   24.9328u  193.0000m 
  194.00000m   25.0236u  194.0000m 
  195.00000m   25.1141u  195.0000m 
  196.00000m   25.2041u  196.0000m 
  197.00000m   25.2938u  197.0000m 
  198.00000m   25.3831u  198.0000m 
  199.00000m   25.4720u  199.0000m 
  200.00000m   25.5605u  200.0000m 
  201.00000m   25.6486u  201.0000m 
  202.00000m   25.7363u  202.0000m 
  203.00000m   25.8237u  203.0000m 
  204.00000m   25.9106u  204.0000m 
  205.00000m   25.9972u  205.0000m 
  206.00000m   26.0833u  206.0000m 
  207.00000m   26.1691u  207.0000m 
  208.00000m   26.2545u  208.0000m 
  209.00000m   26.3395u  209.0000m 
  210.00000m   26.4241u  210.0000m 
  211.00000m   26.5083u  211.0000m 
  212.00000m   26.5922u  212.0000m 
  213.00000m   26.6756u  213.0000m 
  214.00000m   26.7587u  214.0000m 
  215.00000m   26.8414u  215.0000m 
  216.00000m   26.9236u  216.0000m 
  217.00000m   27.0055u  217.0000m 
  218.00000m   27.0871u  218.0000m 
  219.00000m   27.1682u  219.0000m 
  220.00000m   27.2489u  220.0000m 
  221.00000m   27.3293u  221.0000m 
  222.00000m   27.4092u  222.0000m 
  223.00000m   27.4888u  223.0000m 
  224.00000m   27.5680u  224.0000m 
  225.00000m   27.6468u  225.0000m 
  226.00000m   27.7253u  226.0000m 
  227.00000m   27.8033u  227.0000m 
  228.00000m   27.8809u  228.0000m 
  229.00000m   27.9582u  229.0000m 
  230.00000m   28.0351u  230.0000m 
  231.00000m   28.1116u  231.0000m 
  232.00000m   28.1877u  232.0000m 
  233.00000m   28.2634u  233.0000m 
  234.00000m   28.3388u  234.0000m 
  235.00000m   28.4138u  235.0000m 
  236.00000m   28.4883u  236.0000m 
  237.00000m   28.5625u  237.0000m 
  238.00000m   28.6363u  238.0000m 
  239.00000m   28.7098u  239.0000m 
  240.00000m   28.7828u  240.0000m 
  241.00000m   28.8555u  241.0000m 
  242.00000m   28.9278u  242.0000m 
  243.00000m   28.9997u  243.0000m 
  244.00000m   29.0712u  244.0000m 
  245.00000m   29.1423u  245.0000m 
  246.00000m   29.2131u  246.0000m 
  247.00000m   29.2835u  247.0000m 
  248.00000m   29.3535u  248.0000m 
  249.00000m   29.4231u  249.0000m 
  250.00000m   29.4923u  250.0000m 
  251.00000m   29.5612u  251.0000m 
  252.00000m   29.6297u  252.0000m 
  253.00000m   29.6978u  253.0000m 
  254.00000m   29.7655u  254.0000m 
  255.00000m   29.8328u  255.0000m 
  256.00000m   29.8998u  256.0000m 
  257.00000m   29.9664u  257.0000m 
  258.00000m   30.0326u  258.0000m 
  259.00000m   30.0984u  259.0000m 
  260.00000m   30.1639u  260.0000m 
  261.00000m   30.2290u  261.0000m 
  262.00000m   30.2937u  262.0000m 
  263.00000m   30.3580u  263.0000m 
  264.00000m   30.4220u  264.0000m 
  265.00000m   30.4855u  265.0000m 
  266.00000m   30.5487u  266.0000m 
  267.00000m   30.6116u  267.0000m 
  268.00000m   30.6740u  268.0000m 
  269.00000m   30.7361u  269.0000m 
  270.00000m   30.7978u  270.0000m 
  271.00000m   30.8591u  271.0000m 
  272.00000m   30.9201u  272.0000m 
  273.00000m   30.9807u  273.0000m 
  274.00000m   31.0409u  274.0000m 
  275.00000m   31.1008u  275.0000m 
  276.00000m   31.1602u  276.0000m 
  277.00000m   31.2194u  277.0000m 
  278.00000m   31.2781u  278.0000m 
  279.00000m   31.3365u  279.0000m 
  280.00000m   31.3945u  280.0000m 
  281.00000m   31.4521u  281.0000m 
  282.00000m   31.5094u  282.0000m 
  283.00000m   31.5663u  283.0000m 
  284.00000m   31.6228u  284.0000m 
  285.00000m   31.6790u  285.0000m 
  286.00000m   31.7348u  286.0000m 
  287.00000m   31.7902u  287.0000m 
  288.00000m   31.8453u  288.0000m 
  289.00000m   31.9000u  289.0000m 
  290.00000m   31.9543u  290.0000m 
  291.00000m   32.0083u  291.0000m 
  292.00000m   32.0619u  292.0000m 
  293.00000m   32.1152u  293.0000m 
  294.00000m   32.1681u  294.0000m 
  295.00000m   32.2206u  295.0000m 
  296.00000m   32.2728u  296.0000m 
  297.00000m   32.3246u  297.0000m 
  298.00000m   32.3760u  298.0000m 
  299.00000m   32.4271u  299.0000m 
  300.00000m   32.4779u  300.0000m 
  301.00000m   32.5283u  301.0000m 
  302.00000m   32.5783u  302.0000m 
  303.00000m   32.6280u  303.0000m 
  304.00000m   32.6773u  304.0000m 
  305.00000m   32.7263u  305.0000m 
  306.00000m   32.7749u  306.0000m 
  307.00000m   32.8231u  307.0000m 
  308.00000m   32.8710u  308.0000m 
  309.00000m   32.9186u  309.0000m 
  310.00000m   32.9658u  310.0000m 
  311.00000m   33.0127u  311.0000m 
  312.00000m   33.0592u  312.0000m 
  313.00000m   33.1054u  313.0000m 
  314.00000m   33.1512u  314.0000m 
  315.00000m   33.1966u  315.0000m 
  316.00000m   33.2418u  316.0000m 
  317.00000m   33.2866u  317.0000m 
  318.00000m   33.3310u  318.0000m 
  319.00000m   33.3751u  319.0000m 
  320.00000m   33.4189u  320.0000m 
  321.00000m   33.4623u  321.0000m 
  322.00000m   33.5054u  322.0000m 
  323.00000m   33.5481u  323.0000m 
  324.00000m   33.5905u  324.0000m 
  325.00000m   33.6326u  325.0000m 
  326.00000m   33.6743u  326.0000m 
  327.00000m   33.7157u  327.0000m 
  328.00000m   33.7568u  328.0000m 
  329.00000m   33.7975u  329.0000m 
  330.00000m   33.8379u  330.0000m 
  331.00000m   33.8780u  331.0000m 
  332.00000m   33.9177u  332.0000m 
  333.00000m   33.9572u  333.0000m 
  334.00000m   33.9963u  334.0000m 
  335.00000m   34.0350u  335.0000m 
  336.00000m   34.0735u  336.0000m 
  337.00000m   34.1116u  337.0000m 
  338.00000m   34.1494u  338.0000m 
  339.00000m   34.1869u  339.0000m 
  340.00000m   34.2240u  340.0000m 
  341.00000m   34.2609u  341.0000m 
  342.00000m   34.2974u  342.0000m 
  343.00000m   34.3336u  343.0000m 
  344.00000m   34.3695u  344.0000m 
  345.00000m   34.4051u  345.0000m 
  346.00000m   34.4404u  346.0000m 
  347.00000m   34.4754u  347.0000m 
  348.00000m   34.5101u  348.0000m 
  349.00000m   34.5444u  349.0000m 
  350.00000m   34.5785u  350.0000m 
  351.00000m   34.6122u  351.0000m 
  352.00000m   34.6457u  352.0000m 
  353.00000m   34.6788u  353.0000m 
  354.00000m   34.7117u  354.0000m 
  355.00000m   34.7442u  355.0000m 
  356.00000m   34.7765u  356.0000m 
  357.00000m   34.8085u  357.0000m 
  358.00000m   34.8402u  358.0000m 
  359.00000m   34.8715u  359.0000m 
  360.00000m   34.9026u  360.0000m 
  361.00000m   34.9335u  361.0000m 
  362.00000m   34.9640u  362.0000m 
  363.00000m   34.9942u  363.0000m 
  364.00000m   35.0242u  364.0000m 
  365.00000m   35.0539u  365.0000m 
  366.00000m   35.0833u  366.0000m 
  367.00000m   35.1124u  367.0000m 
  368.00000m   35.1413u  368.0000m 
  369.00000m   35.1699u  369.0000m 
  370.00000m   35.1982u  370.0000m 
  371.00000m   35.2262u  371.0000m 
  372.00000m   35.2540u  372.0000m 
  373.00000m   35.2815u  373.0000m 
  374.00000m   35.3088u  374.0000m 
  375.00000m   35.3358u  375.0000m 
  376.00000m   35.3625u  376.0000m 
  377.00000m   35.3890u  377.0000m 
  378.00000m   35.4152u  378.0000m 
  379.00000m   35.4412u  379.0000m 
  380.00000m   35.4669u  380.0000m 
  381.00000m   35.4923u  381.0000m 
  382.00000m   35.5176u  382.0000m 
  383.00000m   35.5425u  383.0000m 
  384.00000m   35.5673u  384.0000m 
  385.00000m   35.5918u  385.0000m 
  386.00000m   35.6160u  386.0000m 
  387.00000m   35.6401u  387.0000m 
  388.00000m   35.6638u  388.0000m 
  389.00000m   35.6874u  389.0000m 
  390.00000m   35.7107u  390.0000m 
  391.00000m   35.7338u  391.0000m 
  392.00000m   35.7567u  392.0000m 
  393.00000m   35.7793u  393.0000m 
  394.00000m   35.8018u  394.0000m 
  395.00000m   35.8240u  395.0000m 
  396.00000m   35.8460u  396.0000m 
  397.00000m   35.8678u  397.0000m 
  398.00000m   35.8893u  398.0000m 
  399.00000m   35.9107u  399.0000m 
  400.00000m   35.9318u  400.0000m 
  401.00000m   35.9528u  401.0000m 
  402.00000m   35.9735u  402.0000m 
  403.00000m   35.9941u  403.0000m 
  404.00000m   36.0144u  404.0000m 
  405.00000m   36.0345u  405.0000m 
  406.00000m   36.0545u  406.0000m 
  407.00000m   36.0743u  407.0000m 
  408.00000m   36.0938u  408.0000m 
  409.00000m   36.1132u  409.0000m 
  410.00000m   36.1324u  410.0000m 
  411.00000m   36.1514u  411.0000m 
  412.00000m   36.1702u  412.0000m 
  413.00000m   36.1889u  413.0000m 
  414.00000m   36.2074u  414.0000m 
  415.00000m   36.2257u  415.0000m 
  416.00000m   36.2438u  416.0000m 
  417.00000m   36.2617u  417.0000m 
  418.00000m   36.2795u  418.0000m 
  419.00000m   36.2972u  419.0000m 
  420.00000m   36.3146u  420.0000m 
  421.00000m   36.3319u  421.0000m 
  422.00000m   36.3490u  422.0000m 
  423.00000m   36.3660u  423.0000m 
  424.00000m   36.3829u  424.0000m 
  425.00000m   36.3995u  425.0000m 
  426.00000m   36.4160u  426.0000m 
  427.00000m   36.4324u  427.0000m 
  428.00000m   36.4486u  428.0000m 
  429.00000m   36.4647u  429.0000m 
  430.00000m   36.4806u  430.0000m 
  431.00000m   36.4964u  431.0000m 
  432.00000m   36.5121u  432.0000m 
  433.00000m   36.5276u  433.0000m 
  434.00000m   36.5430u  434.0000m 
  435.00000m   36.5582u  435.0000m 
  436.00000m   36.5734u  436.0000m 
  437.00000m   36.5884u  437.0000m 
  438.00000m   36.6032u  438.0000m 
  439.00000m   36.6180u  439.0000m 
  440.00000m   36.6326u  440.0000m 
  441.00000m   36.6471u  441.0000m 
  442.00000m   36.6614u  442.0000m 
  443.00000m   36.6757u  443.0000m 
  444.00000m   36.6898u  444.0000m 
  445.00000m   36.7038u  445.0000m 
  446.00000m   36.7177u  446.0000m 
  447.00000m   36.7315u  447.0000m 
  448.00000m   36.7452u  448.0000m 
  449.00000m   36.7588u  449.0000m 
  450.00000m   36.7723u  450.0000m 
  451.00000m   36.7857u  451.0000m 
  452.00000m   36.7989u  452.0000m 
  453.00000m   36.8121u  453.0000m 
  454.00000m   36.8251u  454.0000m 
  455.00000m   36.8381u  455.0000m 
  456.00000m   36.8510u  456.0000m 
  457.00000m   36.8638u  457.0000m 
  458.00000m   36.8764u  458.0000m 
  459.00000m   36.8890u  459.0000m 
  460.00000m   36.9015u  460.0000m 
  461.00000m   36.9139u  461.0000m 
  462.00000m   36.9263u  462.0000m 
  463.00000m   36.9385u  463.0000m 
  464.00000m   36.9506u  464.0000m 
  465.00000m   36.9627u  465.0000m 
  466.00000m   36.9747u  466.0000m 
  467.00000m   36.9866u  467.0000m 
  468.00000m   36.9984u  468.0000m 
  469.00000m   37.0102u  469.0000m 
  470.00000m   37.0218u  470.0000m 
  471.00000m   37.0334u  471.0000m 
  472.00000m   37.0450u  472.0000m 
  473.00000m   37.0564u  473.0000m 
  474.00000m   37.0678u  474.0000m 
  475.00000m   37.0791u  475.0000m 
  476.00000m   37.0903u  476.0000m 
  477.00000m   37.1015u  477.0000m 
  478.00000m   37.1126u  478.0000m 
  479.00000m   37.1236u  479.0000m 
  480.00000m   37.1346u  480.0000m 
  481.00000m   37.1455u  481.0000m 
  482.00000m   37.1563u  482.0000m 
  483.00000m   37.1671u  483.0000m 
  484.00000m   37.1778u  484.0000m 
  485.00000m   37.1885u  485.0000m 
  486.00000m   37.1991u  486.0000m 
  487.00000m   37.2096u  487.0000m 
  488.00000m   37.2201u  488.0000m 
  489.00000m   37.2305u  489.0000m 
  490.00000m   37.2409u  490.0000m 
  491.00000m   37.2512u  491.0000m 
  492.00000m   37.2614u  492.0000m 
  493.00000m   37.2716u  493.0000m 
  494.00000m   37.2818u  494.0000m 
  495.00000m   37.2919u  495.0000m 
  496.00000m   37.3020u  496.0000m 
  497.00000m   37.3120u  497.0000m 
  498.00000m   37.3219u  498.0000m 
  499.00000m   37.3318u  499.0000m 
  500.00000m   37.3417u  500.0000m 
  501.00000m   37.3515u  501.0000m 
  502.00000m   37.3613u  502.0000m 
  503.00000m   37.3710u  503.0000m 
  504.00000m   37.3807u  504.0000m 
  505.00000m   37.3903u  505.0000m 
  506.00000m   37.3999u  506.0000m 
  507.00000m   37.4095u  507.0000m 
  508.00000m   37.4190u  508.0000m 
  509.00000m   37.4285u  509.0000m 
  510.00000m   37.4379u  510.0000m 
  511.00000m   37.4473u  511.0000m 
  512.00000m   37.4566u  512.0000m 
  513.00000m   37.4660u  513.0000m 
  514.00000m   37.4752u  514.0000m 
  515.00000m   37.4845u  515.0000m 
  516.00000m   37.4937u  516.0000m 
  517.00000m   37.5029u  517.0000m 
  518.00000m   37.5120u  518.0000m 
  519.00000m   37.5211u  519.0000m 
  520.00000m   37.5302u  520.0000m 
  521.00000m   37.5392u  521.0000m 
  522.00000m   37.5482u  522.0000m 
  523.00000m   37.5571u  523.0000m 
  524.00000m   37.5661u  524.0000m 
  525.00000m   37.5750u  525.0000m 
  526.00000m   37.5839u  526.0000m 
  527.00000m   37.5927u  527.0000m 
  528.00000m   37.6015u  528.0000m 
  529.00000m   37.6103u  529.0000m 
  530.00000m   37.6190u  530.0000m 
  531.00000m   37.6278u  531.0000m 
  532.00000m   37.6365u  532.0000m 
  533.00000m   37.6451u  533.0000m 
  534.00000m   37.6538u  534.0000m 
  535.00000m   37.6624u  535.0000m 
  536.00000m   37.6710u  536.0000m 
  537.00000m   37.6795u  537.0000m 
  538.00000m   37.6881u  538.0000m 
  539.00000m   37.6966u  539.0000m 
  540.00000m   37.7050u  540.0000m 
  541.00000m   37.7135u  541.0000m 
  542.00000m   37.7219u  542.0000m 
  543.00000m   37.7303u  543.0000m 
  544.00000m   37.7387u  544.0000m 
  545.00000m   37.7471u  545.0000m 
  546.00000m   37.7554u  546.0000m 
  547.00000m   37.7637u  547.0000m 
  548.00000m   37.7720u  548.0000m 
  549.00000m   37.7803u  549.0000m 
  550.00000m   37.7886u  550.0000m 
  551.00000m   37.7968u  551.0000m 
  552.00000m   37.8050u  552.0000m 
  553.00000m   37.8132u  553.0000m 
  554.00000m   37.8213u  554.0000m 
  555.00000m   37.8295u  555.0000m 
  556.00000m   37.8376u  556.0000m 
  557.00000m   37.8457u  557.0000m 
  558.00000m   37.8538u  558.0000m 
  559.00000m   37.8619u  559.0000m 
  560.00000m   37.8699u  560.0000m 
  561.00000m   37.8779u  561.0000m 
  562.00000m   37.8860u  562.0000m 
  563.00000m   37.8939u  563.0000m 
  564.00000m   37.9019u  564.0000m 
  565.00000m   37.9099u  565.0000m 
  566.00000m   37.9178u  566.0000m 
  567.00000m   37.9257u  567.0000m 
  568.00000m   37.9336u  568.0000m 
  569.00000m   37.9415u  569.0000m 
  570.00000m   37.9494u  570.0000m 
  571.00000m   37.9573u  571.0000m 
  572.00000m   37.9651u  572.0000m 
  573.00000m   37.9729u  573.0000m 
  574.00000m   37.9807u  574.0000m 
  575.00000m   37.9885u  575.0000m 
  576.00000m   37.9963u  576.0000m 
  577.00000m   38.0040u  577.0000m 
  578.00000m   38.0118u  578.0000m 
  579.00000m   38.0195u  579.0000m 
  580.00000m   38.0272u  580.0000m 
  581.00000m   38.0349u  581.0000m 
  582.00000m   38.0426u  582.0000m 
  583.00000m   38.0503u  583.0000m 
  584.00000m   38.0580u  584.0000m 
  585.00000m   38.0656u  585.0000m 
  586.00000m   38.0732u  586.0000m 
  587.00000m   38.0809u  587.0000m 
  588.00000m   38.0885u  588.0000m 
  589.00000m   38.0961u  589.0000m 
  590.00000m   38.1036u  590.0000m 
  591.00000m   38.1112u  591.0000m 
  592.00000m   38.1188u  592.0000m 
  593.00000m   38.1263u  593.0000m 
  594.00000m   38.1338u  594.0000m 
  595.00000m   38.1414u  595.0000m 
  596.00000m   38.1489u  596.0000m 
  597.00000m   38.1564u  597.0000m 
  598.00000m   38.1638u  598.0000m 
  599.00000m   38.1713u  599.0000m 
  600.00000m   38.1788u  600.0000m 
  601.00000m   38.1862u  601.0000m 
  602.00000m   38.1937u  602.0000m 
  603.00000m   38.2011u  603.0000m 
  604.00000m   38.2085u  604.0000m 
  605.00000m   38.2159u  605.0000m 
  606.00000m   38.2233u  606.0000m 
  607.00000m   38.2307u  607.0000m 
  608.00000m   38.2380u  608.0000m 
  609.00000m   38.2454u  609.0000m 
  610.00000m   38.2528u  610.0000m 
  611.00000m   38.2601u  611.0000m 
  612.00000m   38.2674u  612.0000m 
  613.00000m   38.2748u  613.0000m 
  614.00000m   38.2821u  614.0000m 
  615.00000m   38.2894u  615.0000m 
  616.00000m   38.2967u  616.0000m 
  617.00000m   38.3039u  617.0000m 
  618.00000m   38.3112u  618.0000m 
  619.00000m   38.3185u  619.0000m 
  620.00000m   38.3257u  620.0000m 
  621.00000m   38.3330u  621.0000m 
  622.00000m   38.3402u  622.0000m 
  623.00000m   38.3474u  623.0000m 
  624.00000m   38.3547u  624.0000m 
  625.00000m   38.3619u  625.0000m 
  626.00000m   38.3691u  626.0000m 
  627.00000m   38.3763u  627.0000m 
  628.00000m   38.3835u  628.0000m 
  629.00000m   38.3906u  629.0000m 
  630.00000m   38.3978u  630.0000m 
  631.00000m   38.4050u  631.0000m 
  632.00000m   38.4121u  632.0000m 
  633.00000m   38.4193u  633.0000m 
  634.00000m   38.4264u  634.0000m 
  635.00000m   38.4335u  635.0000m 
  636.00000m   38.4406u  636.0000m 
  637.00000m   38.4477u  637.0000m 
  638.00000m   38.4549u  638.0000m 
  639.00000m   38.4620u  639.0000m 
  640.00000m   38.4690u  640.0000m 
  641.00000m   38.4761u  641.0000m 
  642.00000m   38.4832u  642.0000m 
  643.00000m   38.4903u  643.0000m 
  644.00000m   38.4973u  644.0000m 
  645.00000m   38.5044u  645.0000m 
  646.00000m   38.5114u  646.0000m 
  647.00000m   38.5185u  647.0000m 
  648.00000m   38.5255u  648.0000m 
  649.00000m   38.5325u  649.0000m 
  650.00000m   38.5395u  650.0000m 
  651.00000m   38.5465u  651.0000m 
  652.00000m   38.5536u  652.0000m 
  653.00000m   38.5606u  653.0000m 
  654.00000m   38.5675u  654.0000m 
  655.00000m   38.5745u  655.0000m 
  656.00000m   38.5815u  656.0000m 
  657.00000m   38.5885u  657.0000m 
  658.00000m   38.5954u  658.0000m 
  659.00000m   38.6024u  659.0000m 
  660.00000m   38.6094u  660.0000m 
  661.00000m   38.6163u  661.0000m 
  662.00000m   38.6232u  662.0000m 
  663.00000m   38.6302u  663.0000m 
  664.00000m   38.6371u  664.0000m 
  665.00000m   38.6440u  665.0000m 
  666.00000m   38.6509u  666.0000m 
  667.00000m   38.6579u  667.0000m 
  668.00000m   38.6648u  668.0000m 
  669.00000m   38.6717u  669.0000m 
  670.00000m   38.6786u  670.0000m 
  671.00000m   38.6854u  671.0000m 
  672.00000m   38.6923u  672.0000m 
  673.00000m   38.6992u  673.0000m 
  674.00000m   38.7061u  674.0000m 
  675.00000m   38.7129u  675.0000m 
  676.00000m   38.7198u  676.0000m 
  677.00000m   38.7267u  677.0000m 
  678.00000m   38.7335u  678.0000m 
  679.00000m   38.7403u  679.0000m 
  680.00000m   38.7472u  680.0000m 
  681.00000m   38.7540u  681.0000m 
  682.00000m   38.7608u  682.0000m 
  683.00000m   38.7677u  683.0000m 
  684.00000m   38.7745u  684.0000m 
  685.00000m   38.7813u  685.0000m 
  686.00000m   38.7881u  686.0000m 
  687.00000m   38.7949u  687.0000m 
  688.00000m   38.8017u  688.0000m 
  689.00000m   38.8085u  689.0000m 
  690.00000m   38.8153u  690.0000m 
  691.00000m   38.8221u  691.0000m 
  692.00000m   38.8288u  692.0000m 
  693.00000m   38.8356u  693.0000m 
  694.00000m   38.8424u  694.0000m 
  695.00000m   38.8492u  695.0000m 
  696.00000m   38.8559u  696.0000m 
  697.00000m   38.8627u  697.0000m 
  698.00000m   38.8694u  698.0000m 
  699.00000m   38.8762u  699.0000m 
  700.00000m   38.8829u  700.0000m 
  701.00000m   38.8896u  701.0000m 
  702.00000m   38.8964u  702.0000m 
  703.00000m   38.9031u  703.0000m 
  704.00000m   38.9098u  704.0000m 
  705.00000m   38.9165u  705.0000m 
  706.00000m   38.9233u  706.0000m 
  707.00000m   38.9300u  707.0000m 
  708.00000m   38.9367u  708.0000m 
  709.00000m   38.9434u  709.0000m 
  710.00000m   38.9501u  710.0000m 
  711.00000m   38.9568u  711.0000m 
  712.00000m   38.9635u  712.0000m 
  713.00000m   38.9701u  713.0000m 
  714.00000m   38.9768u  714.0000m 
  715.00000m   38.9835u  715.0000m 
  716.00000m   38.9902u  716.0000m 
  717.00000m   38.9968u  717.0000m 
  718.00000m   39.0035u  718.0000m 
  719.00000m   39.0102u  719.0000m 
  720.00000m   39.0168u  720.0000m 
  721.00000m   39.0235u  721.0000m 
  722.00000m   39.0301u  722.0000m 
  723.00000m   39.0368u  723.0000m 
  724.00000m   39.0434u  724.0000m 
  725.00000m   39.0501u  725.0000m 
  726.00000m   39.0567u  726.0000m 
  727.00000m   39.0633u  727.0000m 
  728.00000m   39.0699u  728.0000m 
  729.00000m   39.0766u  729.0000m 
  730.00000m   39.0832u  730.0000m 
  731.00000m   39.0898u  731.0000m 
  732.00000m   39.0964u  732.0000m 
  733.00000m   39.1030u  733.0000m 
  734.00000m   39.1096u  734.0000m 
  735.00000m   39.1162u  735.0000m 
  736.00000m   39.1228u  736.0000m 
  737.00000m   39.1294u  737.0000m 
  738.00000m   39.1360u  738.0000m 
  739.00000m   39.1426u  739.0000m 
  740.00000m   39.1492u  740.0000m 
  741.00000m   39.1558u  741.0000m 
  742.00000m   39.1623u  742.0000m 
  743.00000m   39.1689u  743.0000m 
  744.00000m   39.1755u  744.0000m 
  745.00000m   39.1820u  745.0000m 
  746.00000m   39.1886u  746.0000m 
  747.00000m   39.1952u  747.0000m 
  748.00000m   39.2017u  748.0000m 
  749.00000m   39.2083u  749.0000m 
  750.00000m   39.2148u  750.0000m 
  751.00000m   39.2214u  751.0000m 
  752.00000m   39.2279u  752.0000m 
  753.00000m   39.2345u  753.0000m 
  754.00000m   39.2410u  754.0000m 
  755.00000m   39.2475u  755.0000m 
  756.00000m   39.2541u  756.0000m 
  757.00000m   39.2606u  757.0000m 
  758.00000m   39.2671u  758.0000m 
  759.00000m   39.2736u  759.0000m 
  760.00000m   39.2801u  760.0000m 
  761.00000m   39.2867u  761.0000m 
  762.00000m   39.2932u  762.0000m 
  763.00000m   39.2997u  763.0000m 
  764.00000m   39.3062u  764.0000m 
  765.00000m   39.3127u  765.0000m 
  766.00000m   39.3192u  766.0000m 
  767.00000m   39.3257u  767.0000m 
  768.00000m   39.3322u  768.0000m 
  769.00000m   39.3387u  769.0000m 
  770.00000m   39.3452u  770.0000m 
  771.00000m   39.3516u  771.0000m 
  772.00000m   39.3581u  772.0000m 
  773.00000m   39.3646u  773.0000m 
  774.00000m   39.3711u  774.0000m 
  775.00000m   39.3776u  775.0000m 
  776.00000m   39.3840u  776.0000m 
  777.00000m   39.3905u  777.0000m 
  778.00000m   39.3970u  778.0000m 
  779.00000m   39.4034u  779.0000m 
  780.00000m   39.4099u  780.0000m 
  781.00000m   39.4164u  781.0000m 
  782.00000m   39.4228u  782.0000m 
  783.00000m   39.4293u  783.0000m 
  784.00000m   39.4357u  784.0000m 
  785.00000m   39.4422u  785.0000m 
  786.00000m   39.4486u  786.0000m 
  787.00000m   39.4550u  787.0000m 
  788.00000m   39.4615u  788.0000m 
  789.00000m   39.4679u  789.0000m 
  790.00000m   39.4743u  790.0000m 
  791.00000m   39.4808u  791.0000m 
  792.00000m   39.4872u  792.0000m 
  793.00000m   39.4936u  793.0000m 
  794.00000m   39.5001u  794.0000m 
  795.00000m   39.5065u  795.0000m 
  796.00000m   39.5129u  796.0000m 
  797.00000m   39.5193u  797.0000m 
  798.00000m   39.5257u  798.0000m 
  799.00000m   39.5321u  799.0000m 
  800.00000m   39.5385u  800.0000m 
  801.00000m   39.5449u  801.0000m 
  802.00000m   39.5513u  802.0000m 
  803.00000m   39.5578u  803.0000m 
  804.00000m   39.5641u  804.0000m 
  805.00000m   39.5705u  805.0000m 
  806.00000m   39.5769u  806.0000m 
  807.00000m   39.5833u  807.0000m 
  808.00000m   39.5897u  808.0000m 
  809.00000m   39.5961u  809.0000m 
  810.00000m   39.6025u  810.0000m 
  811.00000m   39.6089u  811.0000m 
  812.00000m   39.6152u  812.0000m 
  813.00000m   39.6216u  813.0000m 
  814.00000m   39.6280u  814.0000m 
  815.00000m   39.6344u  815.0000m 
  816.00000m   39.6407u  816.0000m 
  817.00000m   39.6471u  817.0000m 
  818.00000m   39.6535u  818.0000m 
  819.00000m   39.6598u  819.0000m 
  820.00000m   39.6662u  820.0000m 
  821.00000m   39.6726u  821.0000m 
  822.00000m   39.6789u  822.0000m 
  823.00000m   39.6853u  823.0000m 
  824.00000m   39.6916u  824.0000m 
  825.00000m   39.6980u  825.0000m 
  826.00000m   39.7043u  826.0000m 
  827.00000m   39.7107u  827.0000m 
  828.00000m   39.7170u  828.0000m 
  829.00000m   39.7233u  829.0000m 
  830.00000m   39.7297u  830.0000m 
  831.00000m   39.7360u  831.0000m 
  832.00000m   39.7423u  832.0000m 
  833.00000m   39.7487u  833.0000m 
  834.00000m   39.7550u  834.0000m 
  835.00000m   39.7613u  835.0000m 
  836.00000m   39.7677u  836.0000m 
  837.00000m   39.7740u  837.0000m 
  838.00000m   39.7803u  838.0000m 
  839.00000m   39.7866u  839.0000m 
  840.00000m   39.7929u  840.0000m 
  841.00000m   39.7993u  841.0000m 
  842.00000m   39.8056u  842.0000m 
  843.00000m   39.8119u  843.0000m 
  844.00000m   39.8182u  844.0000m 
  845.00000m   39.8245u  845.0000m 
  846.00000m   39.8308u  846.0000m 
  847.00000m   39.8371u  847.0000m 
  848.00000m   39.8434u  848.0000m 
  849.00000m   39.8497u  849.0000m 
  850.00000m   39.8560u  850.0000m 
  851.00000m   39.8623u  851.0000m 
  852.00000m   39.8686u  852.0000m 
  853.00000m   39.8749u  853.0000m 
  854.00000m   39.8812u  854.0000m 
  855.00000m   39.8875u  855.0000m 
  856.00000m   39.8937u  856.0000m 
  857.00000m   39.9000u  857.0000m 
  858.00000m   39.9063u  858.0000m 
  859.00000m   39.9126u  859.0000m 
  860.00000m   39.9189u  860.0000m 
  861.00000m   39.9251u  861.0000m 
  862.00000m   39.9314u  862.0000m 
  863.00000m   39.9377u  863.0000m 
  864.00000m   39.9440u  864.0000m 
  865.00000m   39.9502u  865.0000m 
  866.00000m   39.9565u  866.0000m 
  867.00000m   39.9628u  867.0000m 
  868.00000m   39.9690u  868.0000m 
  869.00000m   39.9753u  869.0000m 
  870.00000m   39.9815u  870.0000m 
  871.00000m   39.9878u  871.0000m 
  872.00000m   39.9940u  872.0000m 
  873.00000m   40.0003u  873.0000m 
  874.00000m   40.0065u  874.0000m 
  875.00000m   40.0128u  875.0000m 
  876.00000m   40.0190u  876.0000m 
  877.00000m   40.0253u  877.0000m 
  878.00000m   40.0315u  878.0000m 
  879.00000m   40.0378u  879.0000m 
  880.00000m   40.0440u  880.0000m 
  881.00000m   40.0503u  881.0000m 
  882.00000m   40.0565u  882.0000m 
  883.00000m   40.0627u  883.0000m 
  884.00000m   40.0690u  884.0000m 
  885.00000m   40.0752u  885.0000m 
  886.00000m   40.0814u  886.0000m 
  887.00000m   40.0876u  887.0000m 
  888.00000m   40.0939u  888.0000m 
  889.00000m   40.1001u  889.0000m 
  890.00000m   40.1063u  890.0000m 
  891.00000m   40.1125u  891.0000m 
  892.00000m   40.1188u  892.0000m 
  893.00000m   40.1250u  893.0000m 
  894.00000m   40.1312u  894.0000m 
  895.00000m   40.1374u  895.0000m 
  896.00000m   40.1436u  896.0000m 
  897.00000m   40.1498u  897.0000m 
  898.00000m   40.1560u  898.0000m 
  899.00000m   40.1623u  899.0000m 
  900.00000m   40.1685u  900.0000m 
  901.00000m   40.1747u  901.0000m 
  902.00000m   40.1809u  902.0000m 
  903.00000m   40.1871u  903.0000m 
  904.00000m   40.1933u  904.0000m 
  905.00000m   40.1995u  905.0000m 
  906.00000m   40.2057u  906.0000m 
  907.00000m   40.2119u  907.0000m 
  908.00000m   40.2180u  908.0000m 
  909.00000m   40.2242u  909.0000m 
  910.00000m   40.2304u  910.0000m 
  911.00000m   40.2366u  911.0000m 
  912.00000m   40.2428u  912.0000m 
  913.00000m   40.2490u  913.0000m 
  914.00000m   40.2552u  914.0000m 
  915.00000m   40.2613u  915.0000m 
  916.00000m   40.2675u  916.0000m 
  917.00000m   40.2737u  917.0000m 
  918.00000m   40.2799u  918.0000m 
  919.00000m   40.2861u  919.0000m 
  920.00000m   40.2922u  920.0000m 
  921.00000m   40.2984u  921.0000m 
  922.00000m   40.3046u  922.0000m 
  923.00000m   40.3107u  923.0000m 
  924.00000m   40.3169u  924.0000m 
  925.00000m   40.3231u  925.0000m 
  926.00000m   40.3292u  926.0000m 
  927.00000m   40.3354u  927.0000m 
  928.00000m   40.3416u  928.0000m 
  929.00000m   40.3477u  929.0000m 
  930.00000m   40.3539u  930.0000m 
  931.00000m   40.3600u  931.0000m 
  932.00000m   40.3662u  932.0000m 
  933.00000m   40.3723u  933.0000m 
  934.00000m   40.3785u  934.0000m 
  935.00000m   40.3847u  935.0000m 
  936.00000m   40.3908u  936.0000m 
  937.00000m   40.3969u  937.0000m 
  938.00000m   40.4031u  938.0000m 
  939.00000m   40.4092u  939.0000m 
  940.00000m   40.4154u  940.0000m 
  941.00000m   40.4215u  941.0000m 
  942.00000m   40.4277u  942.0000m 
  943.00000m   40.4338u  943.0000m 
  944.00000m   40.4399u  944.0000m 
  945.00000m   40.4461u  945.0000m 
  946.00000m   40.4522u  946.0000m 
  947.00000m   40.4583u  947.0000m 
  948.00000m   40.4645u  948.0000m 
  949.00000m   40.4706u  949.0000m 
  950.00000m   40.4767u  950.0000m 
  951.00000m   40.4829u  951.0000m 
  952.00000m   40.4890u  952.0000m 
  953.00000m   40.4951u  953.0000m 
  954.00000m   40.5012u  954.0000m 
  955.00000m   40.5074u  955.0000m 
  956.00000m   40.5135u  956.0000m 
  957.00000m   40.5196u  957.0000m 
  958.00000m   40.5257u  958.0000m 
  959.00000m   40.5318u  959.0000m 
  960.00000m   40.5380u  960.0000m 
  961.00000m   40.5441u  961.0000m 
  962.00000m   40.5502u  962.0000m 
  963.00000m   40.5563u  963.0000m 
  964.00000m   40.5624u  964.0000m 
  965.00000m   40.5685u  965.0000m 
  966.00000m   40.5746u  966.0000m 
  967.00000m   40.5807u  967.0000m 
  968.00000m   40.5868u  968.0000m 
  969.00000m   40.5929u  969.0000m 
  970.00000m   40.5990u  970.0000m 
  971.00000m   40.6051u  971.0000m 
  972.00000m   40.6112u  972.0000m 
  973.00000m   40.6173u  973.0000m 
  974.00000m   40.6234u  974.0000m 
  975.00000m   40.6295u  975.0000m 
  976.00000m   40.6356u  976.0000m 
  977.00000m   40.6417u  977.0000m 
  978.00000m   40.6478u  978.0000m 
  979.00000m   40.6539u  979.0000m 
  980.00000m   40.6600u  980.0000m 
  981.00000m   40.6661u  981.0000m 
  982.00000m   40.6721u  982.0000m 
  983.00000m   40.6782u  983.0000m 
  984.00000m   40.6843u  984.0000m 
  985.00000m   40.6904u  985.0000m 
  986.00000m   40.6965u  986.0000m 
  987.00000m   40.7025u  987.0000m 
  988.00000m   40.7086u  988.0000m 
  989.00000m   40.7147u  989.0000m 
  990.00000m   40.7208u  990.0000m 
  991.00000m   40.7268u  991.0000m 
  992.00000m   40.7329u  992.0000m 
  993.00000m   40.7390u  993.0000m 
  994.00000m   40.7451u  994.0000m 
  995.00000m   40.7511u  995.0000m 
  996.00000m   40.7572u  996.0000m 
  997.00000m   40.7633u  997.0000m 
  998.00000m   40.7693u  998.0000m 
  999.00000m   40.7754u  999.0000m 
    1.00000    40.7815u    1.0000  
y

          ***** job concluded
 ******  
 

 ****** job statistics summary tnom=  25.000 temp=  25.000 ******

  ******  Circuit Statistics  ******
  # nodes       =       7 # elements   =       3
  # resistors   =       0 # capacitors =       0 # inductors   =       0
  # mutual_inds =       0 # vccs       =       0 # vcvs        =       0
  # cccs        =       0 # ccvs       =       0 # volt_srcs   =       2
  # curr_srcs   =       0 # diodes     =       0 # bjts        =       0
  # jfets       =       0 # mosfets    =       1 # U elements  =       0
  # T elements  =       0 # W elements =       0 # B elements  =       0
  # S elements  =       0 # P elements =       0 # va device   =       0
  # vector_srcs =       0 # N elements =       0


  ******  Runtime Statistics (seconds)  ******

  analysis           time    # points   tot. iter  conv.iter
  op point           0.00           1           0
  dc sweep           0.04        1001        2004
  readin             0.00
  errchk             0.00
  setup              0.00
  output             0.00


           peak memory used         62.51 megabytes
           total cpu time            0.05 seconds
           total elapsed time        0.06 seconds
           job started at     00:03:22 11/03/2021
           job ended   at     00:03:22 11/03/2021


  
      

Element variations(Local):   element              parameter
 *****************************************************************
 ******  option summary
 ******
 runlvl  = 3         bypass  = 2.0000    
 ******
 

 ****** dc transfer curves tnom=  25.000 temp=  25.000 ******
x

 volt         current    voltage   
             m1         vin        
    0.       -222.4955p    0.      
    1.00000m  136.8302n    1.0000m 
    2.00000m  273.5184n    2.0000m 
    3.00000m  409.8422n    3.0000m 
    4.00000m  545.8018n    4.0000m 
    5.00000m  681.3971n    5.0000m 
    6.00000m  816.6283n    6.0000m 
    7.00000m  951.4955n    7.0000m 
    8.00000m    1.0860u    8.0000m 
    9.00000m    1.2201u    9.0000m 
   10.00000m    1.3539u   10.0000m 
   11.00000m    1.4873u   11.0000m 
   12.00000m    1.6204u   12.0000m 
   13.00000m    1.7531u   13.0000m 
   14.00000m    1.8854u   14.0000m 
   15.00000m    2.0173u   15.0000m 
   16.00000m    2.1489u   16.0000m 
   17.00000m    2.2802u   17.0000m 
   18.00000m    2.4110u   18.0000m 
   19.00000m    2.5415u   19.0000m 
   20.00000m    2.6717u   20.0000m 
   21.00000m    2.8015u   21.0000m 
   22.00000m    2.9309u   22.0000m 
   23.00000m    3.0599u   23.0000m 
   24.00000m    3.1886u   24.0000m 
   25.00000m    3.3169u   25.0000m 
   26.00000m    3.4449u   26.0000m 
   27.00000m    3.5725u   27.0000m 
   28.00000m    3.6997u   28.0000m 
   29.00000m    3.8266u   29.0000m 
   30.00000m    3.9531u   30.0000m 
   31.00000m    4.0793u   31.0000m 
   32.00000m    4.2051u   32.0000m 
   33.00000m    4.3305u   33.0000m 
   34.00000m    4.4556u   34.0000m 
   35.00000m    4.5803u   35.0000m 
   36.00000m    4.7046u   36.0000m 
   37.00000m    4.8286u   37.0000m 
   38.00000m    4.9522u   38.0000m 
   39.00000m    5.0755u   39.0000m 
   40.00000m    5.1984u   40.0000m 
   41.00000m    5.3209u   41.0000m 
   42.00000m    5.4431u   42.0000m 
   43.00000m    5.5649u   43.0000m 
   44.00000m    5.6863u   44.0000m 
   45.00000m    5.8074u   45.0000m 
   46.00000m    5.9282u   46.0000m 
   47.00000m    6.0485u   47.0000m 
   48.00000m    6.1685u   48.0000m 
   49.00000m    6.2882u   49.0000m 
   50.00000m    6.4075u   50.0000m 
   51.00000m    6.5264u   51.0000m 
   52.00000m    6.6449u   52.0000m 
   53.00000m    6.7632u   53.0000m 
   54.00000m    6.8810u   54.0000m 
   55.00000m    6.9985u   55.0000m 
   56.00000m    7.1156u   56.0000m 
   57.00000m    7.2324u   57.0000m 
   58.00000m    7.3488u   58.0000m 
   59.00000m    7.4648u   59.0000m 
   60.00000m    7.5805u   60.0000m 
   61.00000m    7.6958u   61.0000m 
   62.00000m    7.8108u   62.0000m 
   63.00000m    7.9254u   63.0000m 
   64.00000m    8.0396u   64.0000m 
   65.00000m    8.1535u   65.0000m 
   66.00000m    8.2670u   66.0000m 
   67.00000m    8.3802u   67.0000m 
   68.00000m    8.4930u   68.0000m 
   69.00000m    8.6054u   69.0000m 
   70.00000m    8.7175u   70.0000m 
   71.00000m    8.8293u   71.0000m 
   72.00000m    8.9406u   72.0000m 
   73.00000m    9.0516u   73.0000m 
   74.00000m    9.1623u   74.0000m 
   75.00000m    9.2726u   75.0000m 
   76.00000m    9.3825u   76.0000m 
   77.00000m    9.4921u   77.0000m 
[...]
  485.00000m   38.3953u  485.0000m 
  486.00000m   38.4145u  486.0000m 
  487.00000m   38.4337u  487.0000m 
  488.00000m   38.4528u  488.0000m 
  489.00000m   38.4718u  489.0000m 
  490.00000m   38.4908u  490.0000m 
  491.00000m   38.5097u  491.0000m 
  492.00000m   38.5285u  492.0000m 
  493.00000m   38.5473u  493.0000m 
  494.00000m   38.5661u  494.0000m 
  495.00000m   38.5848u  495.0000m 
  496.00000m   38.6034u  496.0000m 
  497.00000m   38.6220u  497.0000m 
  498.00000m   38.6405u  498.0000m 
  499.00000m   38.6590u  499.0000m 
  500.00000m   38.6775u  500.0000m 
  501.00000m   38.6958u  501.0000m 
  502.00000m   38.7142u  502.0000m 
  503.00000m   38.7325u  503.0000m 
  504.00000m   38.7507u  504.0000m 
  505.00000m   38.7689u  505.0000m 
  506.00000m   38.7870u  506.0000m 
  507.00000m   38.8051u  507.0000m 
  508.00000m   38.8231u  508.0000m 
  509.00000m   38.8411u  509.0000m 
  510.00000m   38.8590u  510.0000m 
  511.00000m   38.8769u  511.0000m 
  512.00000m   38.8948u  512.0000m 
  513.00000m   38.9126u  513.0000m 
  514.00000m   38.9304u  514.0000m 
  515.00000m   38.9481u  515.0000m 
  516.00000m   38.9657u  516.0000m 
  517.00000m   38.9834u  517.0000m 
  518.00000m   39.0009u  518.0000m 
  519.00000m   39.0185u  519.0000m 
  520.00000m   39.0360u  520.0000m 
  521.00000m   39.0534u  521.0000m 
  522.00000m   39.0709u  522.0000m 
  523.00000m   39.0882u  523.0000m 
  524.00000m   39.1056u  524.0000m 
  525.00000m   39.1229u  525.0000m 
  526.00000m   39.1401u  526.0000m 
  527.00000m   39.1573u  527.0000m 
  528.00000m   39.1745u  528.0000m 
  529.00000m   39.1916u  529.0000m 
  530.00000m   39.2087u  530.0000m 
  531.00000m   39.2258u  531.0000m 
  532.00000m   39.2428u  532.0000m 
  533.00000m   39.2598u  533.0000m 
  534.00000m   39.2767u  534.0000m 
  535.00000m   39.2936u  535.0000m 
  536.00000m   39.3105u  536.0000m 
  537.00000m   39.3273u  537.0000m 
  538.00000m   39.3441u  538.0000m 
  539.00000m   39.3609u  539.0000m 
  540.00000m   39.3776u  540.0000m 
  541.00000m   39.3943u  541.0000m 
  542.00000m   39.4110u  542.0000m 
  543.00000m   39.4276u  543.0000m 
  544.00000m   39.4442u  544.0000m 
  545.00000m   39.4607u  545.0000m 
  546.00000m   39.4773u  546.0000m 
  547.00000m   39.4937u  547.0000m 
  548.00000m   39.5102u  548.0000m 
  549.00000m   39.5266u  549.0000m 
  550.00000m   39.5430u  550.0000m 
  551.00000m   39.5594u  551.0000m 
  552.00000m   39.5757u  552.0000m 
  553.00000m   39.5920u  553.0000m 
  554.00000m   39.6083u  554.0000m 
  555.00000m   39.6245u  555.0000m 
  556.00000m   39.6407u  556.0000m 
  557.00000m   39.6569u  557.0000m 
  558.00000m   39.6730u  558.0000m 
  559.00000m   39.6891u  559.0000m 
  560.00000m   39.7052u  560.0000m 
  561.00000m   39.7213u  561.0000m 
  562.00000m   39.7373u  562.0000m 
  563.00000m   39.7533u  563.0000m 
  564.00000m   39.7692u  564.0000m 
  565.00000m   39.7852u  565.0000m 
  566.00000m   39.8011u  566.0000m 
  567.00000m   39.8170u  567.0000m 
  568.00000m   39.8328u  568.0000m 
  569.00000m   39.8486u  569.0000m 
  570.00000m   39.8644u  570.0000m 
  571.00000m   39.8802u  571.0000m 
  572.00000m   39.8960u  572.0000m 
  573.00000m   39.9117u  573.0000m 
  574.00000m   39.9274u  574.0000m 
  575.00000m   39.9430u  575.0000m 
  576.00000m   39.9587u  576.0000m 
  577.00000m   39.9743u  577.0000m 
  578.00000m   39.9899u  578.0000m 
  579.00000m   40.0054u  579.0000m 
  580.00000m   40.0210u  580.0000m 
  581.00000m   40.0365u  581.0000m 
  582.00000m   40.0520u  582.0000m 
  583.00000m   40.0674u  583.0000m 
  584.00000m   40.0829u  584.0000m 
  585.00000m   40.0983u  585.0000m 
  586.00000m   40.1137u  586.0000m 
  587.00000m   40.1290u  587.0000m 
  588.00000m   40.1444u  588.0000m 
  589.00000m   40.1597u  589.0000m 
  590.00000m   40.1750u  590.0000m 
  591.00000m   40.1903u  591.0000m 
  592.00000m   40.2055u  592.0000m 
  593.00000m   40.2207u  593.0000m 
  594.00000m   40.2359u  594.0000m 
  595.00000m   40.2511u  595.0000m 
  596.00000m   40.2663u  596.0000m 
  597.00000m   40.2814u  597.0000m 
  598.00000m   40.2965u  598.0000m 
  599.00000m   40.3116u  599.0000m 
  600.00000m   40.3267u  600.0000m 
  601.00000m   40.3417u  601.0000m 
  602.00000m   40.3568u  602.0000m 
  603.00000m   40.3718u  603.0000m 
  604.00000m   40.3868u  604.0000m 
  605.00000m   40.4017u  605.0000m 
  606.00000m   40.4167u  606.0000m 
  607.00000m   40.4316u  607.0000m 
  608.00000m   40.4465u  608.0000m 
  609.00000m   40.4614u  609.0000m 
  610.00000m   40.4762u  610.0000m 
  611.00000m   40.4911u  611.0000m 
  612.00000m   40.5059u  612.0000m 
  613.00000m   40.5207u  613.0000m 
  614.00000m   40.5355u  614.0000m 
  615.00000m   40.5502u  615.0000m 
  616.00000m   40.5650u  616.0000m 
  617.00000m   40.5797u  617.0000m 
  618.00000m   40.5944u  618.0000m 
  619.00000m   40.6091u  619.0000m 
  620.00000m   40.6238u  620.0000m 
  621.00000m   40.6384u  621.0000m 
  622.00000m   40.6531u  622.0000m 
  623.00000m   40.6677u  623.0000m 
  624.00000m   40.6823u  624.0000m 
  625.00000m   40.6968u  625.0000m 
  626.00000m   40.7114u  626.0000m 
  627.00000m   40.7259u  627.0000m 
  628.00000m   40.7405u  628.0000m 
  629.00000m   40.7550u  629.0000m 
  630.00000m   40.7694u  630.0000m 
  631.00000m   40.7839u  631.0000m 
  632.00000m   40.7984u  632.0000m 
  633.00000m   40.8128u  633.0000m 
  634.00000m   40.8272u  634.0000m 
  635.00000m   40.8416u  635.0000m 
  636.00000m   40.8560u  636.0000m 
  637.00000m   40.8704u  637.0000m 
  638.00000m   40.8847u  638.0000m 
  639.00000m   40.8991u  639.0000m 
  640.00000m   40.9134u  640.0000m 
  641.00000m   40.9277u  641.0000m 
  642.00000m   40.9420u  642.0000m 
  643.00000m   40.9562u  643.0000m 
  644.00000m   40.9705u  644.0000m 
  645.00000m   40.9847u  645.0000m 
  646.00000m   40.9989u  646.0000m 
  647.00000m   41.0131u  647.0000m 
  648.00000m   41.0273u  648.0000m 
  649.00000m   41.0415u  649.0000m 
  650.00000m   41.0557u  650.0000m 
  651.00000m   41.0698u  651.0000m 
  652.00000m   41.0839u  652.0000m 
  653.00000m   41.0981u  653.0000m 
  654.00000m   41.1122u  654.0000m 
  655.00000m   41.1262u  655.0000m 
  656.00000m   41.1403u  656.0000m 
  657.00000m   41.1544u  657.0000m 
  658.00000m   41.1684u  658.0000m 
  659.00000m   41.1824u  659.0000m 
  660.00000m   41.1964u  660.0000m 
  661.00000m   41.2104u  661.0000m 
  662.00000m   41.2244u  662.0000m 
  663.00000m   41.2384u  663.0000m 
  664.00000m   41.2523u  664.0000m 
  665.00000m   41.2663u  665.0000m 
  666.00000m   41.2802u  666.0000m 
  667.00000m   41.2941u  667.0000m 
  668.00000m   41.3080u  668.0000m 
  669.00000m   41.3219u  669.0000m 
  670.00000m   41.3358u  670.0000m 
  671.00000m   41.3496u  671.0000m 
  672.00000m   41.3635u  672.0000m 
  673.00000m   41.3773u  673.0000m 
  674.00000m   41.3911u  674.0000m 
  675.00000m   41.4049u  675.0000m 
  676.00000m   41.4187u  676.0000m 
  677.00000m   41.4325u  677.0000m 
  678.00000m   41.4462u  678.0000m 
  679.00000m   41.4600u  679.0000m 
  680.00000m   41.4737u  680.0000m 
  681.00000m   41.4875u  681.0000m 
  682.00000m   41.5012u  682.0000m 
  683.00000m   41.5149u  683.0000m 
  684.00000m   41.5286u  684.0000m 
  685.00000m   41.5422u  685.0000m 
  686.00000m   41.5559u  686.0000m 
  687.00000m   41.5696u  687.0000m 
  688.00000m   41.5832u  688.0000m 
  689.00000m   41.5968u  689.0000m 
  690.00000m   41.6104u  690.0000m 
  691.00000m   41.6240u  691.0000m 
  692.00000m   41.6376u  692.0000m 
  693.00000m   41.6512u  693.0000m 
  694.00000m   41.6648u  694.0000m 
  695.00000m   41.6783u  695.0000m 
  696.00000m   41.6919u  696.0000m 
  697.00000m   41.7054u  697.0000m 
  698.00000m   41.7189u  698.0000m 
  699.00000m   41.7324u  699.0000m 
  700.00000m   41.7459u  700.0000m 
  701.00000m   41.7594u  701.0000m 
  702.00000m   41.7729u  702.0000m 
  703.00000m   41.7864u  703.0000m 
  704.00000m   41.7998u  704.0000m 
  705.00000m   41.8132u  705.0000m 
  706.00000m   41.8267u  706.0000m 
  707.00000m   41.8401u  707.0000m 
  708.00000m   41.8535u  708.0000m 
  709.00000m   41.8669u  709.0000m 
  710.00000m   41.8803u  710.0000m 
  711.00000m   41.8937u  711.0000m 
  712.00000m   41.9070u  712.0000m 
  713.00000m   41.9204u  713.0000m 
  714.00000m   41.9337u  714.0000m 
  715.00000m   41.9471u  715.0000m 
  716.00000m   41.9604u  716.0000m 
  717.00000m   41.9737u  717.0000m 
  718.00000m   41.9870u  718.0000m 
  719.00000m   42.0003u  719.0000m 
  720.00000m   42.0136u  720.0000m 
  721.00000m   42.0268u  721.0000m 
  722.00000m   42.0401u  722.0000m 
  723.00000m   42.0534u  723.0000m 
  724.00000m   42.0666u  724.0000m 
  725.00000m   42.0798u  725.0000m 
  726.00000m   42.0930u  726.0000m 
  727.00000m   42.1063u  727.0000m 
  728.00000m   42.1195u  728.0000m 
  729.00000m   42.1327u  729.0000m 
  730.00000m   42.1458u  730.0000m 
  731.00000m   42.1590u  731.0000m 
  732.00000m   42.1722u  732.0000m 
  733.00000m   42.1853u  733.0000m 
  734.00000m   42.1985u  734.0000m 
  735.00000m   42.2116u  735.0000m 
  736.00000m   42.2247u  736.0000m 
  737.00000m   42.2378u  737.0000m 
  738.00000m   42.2509u  738.0000m 
  739.00000m   42.2640u  739.0000m 
  740.00000m   42.2771u  740.0000m 
  741.00000m   42.2902u  741.0000m 
  742.00000m   42.3033u  742.0000m 
  743.00000m   42.3163u  743.0000m 
  744.00000m   42.3294u  744.0000m 
  745.00000m   42.3424u  745.0000m 
  746.00000m   42.3555u  746.0000m 
  747.00000m   42.3685u  747.0000m 
  748.00000m   42.3815u  748.0000m 
  749.00000m   42.3945u  749.0000m 
  750.00000m   42.4075u  750.0000m 
  751.00000m   42.4205u  751.0000m 
  752.00000m   42.4335u  752.0000m 
  753.00000m   42.4464u  753.0000m 
  754.00000m   42.4594u  754.0000m 
  755.00000m   42.4724u  755.0000m 
  756.00000m   42.4853u  756.0000m 
  757.00000m   42.4982u  757.0000m 
  758.00000m   42.5112u  758.0000m 
  759.00000m   42.5241u  759.0000m 
  760.00000m   42.5370u  760.0000m 
  761.00000m   42.5499u  761.0000m 
  762.00000m   42.5628u  762.0000m 
  763.00000m   42.5757u  763.0000m 
  764.00000m   42.5886u  764.0000m 
  765.00000m   42.6014u  765.0000m 
  766.00000m   42.6143u  766.0000m 
  767.00000m   42.6272u  767.0000m 
  768.00000m   42.6400u  768.0000m 
  769.00000m   42.6528u  769.0000m 
  770.00000m   42.6657u  770.0000m 
  771.00000m   42.6785u  771.0000m 
  772.00000m   42.6913u  772.0000m 
  773.00000m   42.7041u  773.0000m 
  774.00000m   42.7169u  774.0000m 
  775.00000m   42.7297u  775.0000m 
  776.00000m   42.7425u  776.0000m 
  777.00000m   42.7553u  777.0000m 
  778.00000m   42.7680u  778.0000m 
  779.00000m   42.7808u  779.0000m 
  780.00000m   42.7935u  780.0000m 
  781.00000m   42.8063u  781.0000m 
  782.00000m   42.8190u  782.0000m 
  783.00000m   42.8318u  783.0000m 
  784.00000m   42.8445u  784.0000m 
  785.00000m   42.8572u  785.0000m 
  786.00000m   42.8699u  786.0000m 
  787.00000m   42.8826u  787.0000m 
  788.00000m   42.8953u  788.0000m 
  789.00000m   42.9080u  789.0000m 
  790.00000m   42.9207u  790.0000m 
  791.00000m   42.9333u  791.0000m 
  792.00000m   42.9460u  792.0000m 
  793.00000m   42.9587u  793.0000m 
  794.00000m   42.9713u  794.0000m 
  795.00000m   42.9840u  795.0000m 
  796.00000m   42.9966u  796.0000m 
  797.00000m   43.0092u  797.0000m 
  798.00000m   43.0218u  798.0000m 
  799.00000m   43.0345u  799.0000m 
  800.00000m   43.0471u  800.0000m 
  801.00000m   43.0597u  801.0000m 
  802.00000m   43.0723u  802.0000m 
  803.00000m   43.0848u  803.0000m 
  804.00000m   43.0974u  804.0000m 
  805.00000m   43.1100u  805.0000m 
  806.00000m   43.1226u  806.0000m 
  807.00000m   43.1351u  807.0000m 
  808.00000m   43.1477u  808.0000m 
  809.00000m   43.1602u  809.0000m 
  810.00000m   43.1728u  810.0000m 
  811.00000m   43.1853u  811.0000m 
  812.00000m   43.1978u  812.0000m 
  813.00000m   43.2103u  813.0000m 
  814.00000m   43.2229u  814.0000m 
  815.00000m   43.2354u  815.0000m 
  816.00000m   43.2479u  816.0000m 
  817.00000m   43.2604u  817.0000m 
  818.00000m   43.2728u  818.0000m 
  819.00000m   43.2853u  819.0000m 
  820.00000m   43.2978u  820.0000m 
  821.00000m   43.3103u  821.0000m 
  822.00000m   43.3227u  822.0000m 
  823.00000m   43.3352u  823.0000m 
  824.00000m   43.3476u  824.0000m 
  825.00000m   43.3601u  825.0000m 
  826.00000m   43.3725u  826.0000m 
  827.00000m   43.3849u  827.0000m 
  828.00000m   43.3974u  828.0000m 
  829.00000m   43.4098u  829.0000m 
  830.00000m   43.4222u  830.0000m 
  831.00000m   43.4346u  831.0000m 
  832.00000m   43.4470u  832.0000m 
  833.00000m   43.4594u  833.0000m 
  834.00000m   43.4718u  834.0000m 
  835.00000m   43.4842u  835.0000m 
  836.00000m   43.4966u  836.0000m 
  837.00000m   43.5089u  837.0000m 
  838.00000m   43.5213u  838.0000m 
  839.00000m   43.5336u  839.0000m 
  840.00000m   43.5460u  840.0000m 
  841.00000m   43.5583u  841.0000m 
  842.00000m   43.5707u  842.0000m 
  843.00000m   43.5830u  843.0000m 
  844.00000m   43.5954u  844.0000m 
  845.00000m   43.6077u  845.0000m 
  846.00000m   43.6200u  846.0000m 
  847.00000m   43.6323u  847.0000m 
  848.00000m   43.6446u  848.0000m 
  849.00000m   43.6569u  849.0000m 
  850.00000m   43.6692u  850.0000m 
  851.00000m   43.6815u  851.0000m 
  852.00000m   43.6938u  852.0000m 
  853.00000m   43.7061u  853.0000m 
  854.00000m   43.7183u  854.0000m 
  855.00000m   43.7306u  855.0000m 
  856.00000m   43.7429u  856.0000m 
  857.00000m   43.7551u  857.0000m 
  858.00000m   43.7674u  858.0000m 
  859.00000m   43.7796u  859.0000m 
  860.00000m   43.7919u  860.0000m 
  861.00000m   43.8041u  861.0000m 
  862.00000m   43.8163u  862.0000m 
  863.00000m   43.8286u  863.0000m 
  864.00000m   43.8408u  864.0000m 
  865.00000m   43.8530u  865.0000m 
  866.00000m   43.8652u  866.0000m 
  867.00000m   43.8774u  867.0000m 
  868.00000m   43.8896u  868.0000m 
  869.00000m   43.9018u  869.0000m 
  870.00000m   43.9140u  870.0000m 
  871.00000m   43.9262u  871.0000m 
  872.00000m   43.9384u  872.0000m 
  873.00000m   43.9505u  873.0000m 
  874.00000m   43.9627u  874.0000m 
  875.00000m   43.9749u  875.0000m 
  876.00000m   43.9870u  876.0000m 
  877.00000m   43.9992u  877.0000m 
  878.00000m   44.0113u  878.0000m 
  879.00000m   44.0235u  879.0000m 
  880.00000m   44.0356u  880.0000m 
  881.00000m   44.0477u  881.0000m 
  882.00000m   44.0599u  882.0000m 
  883.00000m   44.0720u  883.0000m 
  884.00000m   44.0841u  884.0000m 
  885.00000m   44.0962u  885.0000m 
  886.00000m   44.1083u  886.0000m 
  887.00000m   44.1204u  887.0000m 
  888.00000m   44.1325u  888.0000m 
  889.00000m   44.1446u  889.0000m 
  890.00000m   44.1567u  890.0000m 
  891.00000m   44.1688u  891.0000m 
  892.00000m   44.1809u  892.0000m 
  893.00000m   44.1929u  893.0000m 
  894.00000m   44.2050u  894.0000m 
  895.00000m   44.2171u  895.0000m 
  896.00000m   44.2291u  896.0000m 
  897.00000m   44.2412u  897.0000m 
  898.00000m   44.2532u  898.0000m 
  899.00000m   44.2653u  899.0000m 
  900.00000m   44.2773u  900.0000m 
  901.00000m   44.2894u  901.0000m 
  902.00000m   44.3014u  902.0000m 
  903.00000m   44.3134u  903.0000m 
  904.00000m   44.3255u  904.0000m 
  905.00000m   44.3375u  905.0000m 
  906.00000m   44.3495u  906.0000m 
  907.00000m   44.3615u  907.0000m 
  908.00000m   44.3735u  908.0000m 
  909.00000m   44.3855u  909.0000m 
  910.00000m   44.3975u  910.0000m 
  911.00000m   44.4095u  911.0000m 
  912.00000m   44.4215u  912.0000m 
  913.00000m   44.4335u  913.0000m 
  914.00000m   44.4455u  914.0000m 
  915.00000m   44.4574u  915.0000m 
  916.00000m   44.4694u  916.0000m 
  917.00000m   44.4814u  917.0000m 
  918.00000m   44.4933u  918.0000m 
  919.00000m   44.5053u  919.0000m 
  920.00000m   44.5172u  920.0000m 
  921.00000m   44.5292u  921.0000m 
  922.00000m   44.5411u  922.0000m 
  923.00000m   44.5531u  923.0000m 
  924.00000m   44.5650u  924.0000m 
  925.00000m   44.5770u  925.0000m 
  926.00000m   44.5889u  926.0000m 
  927.00000m   44.6008u  927.0000m 
  928.00000m   44.6127u  928.0000m 
  929.00000m   44.6246u  929.0000m 
  930.00000m   44.6366u  930.0000m 
  931.00000m   44.6485u  931.0000m 
  932.00000m   44.6604u  932.0000m 
  933.00000m   44.6723u  933.0000m 
  934.00000m   44.6842u  934.0000m 
  935.00000m   44.6961u  935.0000m 
  936.00000m   44.7079u  936.0000m 
  937.00000m   44.7198u  937.0000m 
  938.00000m   44.7317u  938.0000m 
  939.00000m   44.7436u  939.0000m 
  940.00000m   44.7555u  940.0000m 
  941.00000m   44.7673u  941.0000m 
  942.00000m   44.7792u  942.0000m 
  943.00000m   44.7911u  943.0000m 
  944.00000m   44.8029u  944.0000m 
  945.00000m   44.8148u  945.0000m 
  946.00000m   44.8266u  946.0000m 
  947.00000m   44.8385u  947.0000m 
  948.00000m   44.8503u  948.0000m 
  949.00000m   44.8621u  949.0000m 
  950.00000m   44.8740u  950.0000m 
  951.00000m   44.8858u  951.0000m 
  952.00000m   44.8976u  952.0000m 
  953.00000m   44.9095u  953.0000m 
  954.00000m   44.9213u  954.0000m 
  955.00000m   44.9331u  955.0000m 
  956.00000m   44.9449u  956.0000m 
  957.00000m   44.9567u  957.0000m 
  958.00000m   44.9685u  958.0000m 
  959.00000m   44.9803u  959.0000m 
  960.00000m   44.9921u  960.0000m 
  961.00000m   45.0039u  961.0000m 
  962.00000m   45.0157u  962.0000m 
  963.00000m   45.0275u  963.0000m 
  964.00000m   45.0393u  964.0000m 
  965.00000m   45.0511u  965.0000m 
  966.00000m   45.0628u  966.0000m 
  967.00000m   45.0746u  967.0000m 
  968.00000m   45.0864u  968.0000m 
  969.00000m   45.0981u  969.0000m 
  970.00000m   45.1099u  970.0000m 
  971.00000m   45.1217u  971.0000m 
  972.00000m   45.1334u  972.0000m 
  973.00000m   45.1452u  973.0000m 
  974.00000m   45.1569u  974.0000m 
  975.00000m   45.1687u  975.0000m 
  976.00000m   45.1804u  976.0000m 
  977.00000m   45.1921u  977.0000m 
  978.00000m   45.2039u  978.0000m 
  979.00000m   45.2156u  979.0000m 
  980.00000m   45.2273u  980.0000m 
  981.00000m   45.2391u  981.0000m 
  982.00000m   45.2508u  982.0000m 
  983.00000m   45.2625u  983.0000m 
  984.00000m   45.2742u  984.0000m 
  985.00000m   45.2859u  985.0000m 
  986.00000m   45.2976u  986.0000m 
  987.00000m   45.3093u  987.0000m 
  988.00000m   45.3210u  988.0000m 
  989.00000m   45.3327u  989.0000m 
  990.00000m   45.3444u  990.0000m 
  991.00000m   45.3561u  991.0000m 
  992.00000m   45.3678u  992.0000m 
  993.00000m   45.3795u  993.0000m 
  994.00000m   45.3912u  994.0000m 
  995.00000m   45.4029u  995.0000m 
  996.00000m   45.4146u  996.0000m 
  997.00000m   45.4262u  997.0000m 
  998.00000m   45.4379u  998.0000m 
  999.00000m   45.4496u  999.0000m 
    1.00000    45.4612u    1.0000  
y

          ***** job concluded
 ******  
 

 ****** job statistics summary tnom=  25.000 temp=  25.000 ******

  ******  Circuit Statistics  ******
  # nodes       =       7 # elements   =       3
  # resistors   =       0 # capacitors =       0 # inductors   =       0
  # mutual_inds =       0 # vccs       =       0 # vcvs        =       0
  # cccs        =       0 # ccvs       =       0 # volt_srcs   =       2
  # curr_srcs   =       0 # diodes     =       0 # bjts        =       0
  # jfets       =       0 # mosfets    =       1 # U elements  =       0
  # T elements  =       0 # W elements =       0 # B elements  =       0
  # S elements  =       0 # P elements =       0 # va device   =       0
  # vector_srcs =       0 # N elements =       0


  ******  Runtime Statistics (seconds)  ******

  analysis           time    # points   tot. iter  conv.iter
  op point           0.00           1           0
  dc sweep           0.04        1001        2004
  readin             0.00
  errchk             0.00
  setup              0.00
  output             0.00


           peak memory used         62.53 megabytes
           total cpu time            0.06 seconds
           total elapsed time        0.07 seconds
           job started at     00:03:22 11/03/2021
           job ended   at     00:03:22 11/03/2021


  lic: Release hspice token(s) 
 lic: total license checkout elapse time:        0.02(s)
