 ****** HSPICE -- O-2018.09-SP2 win64 (Feb 25 2019) ******                      
  Copyright (c) 1986 - 2021 by Synopsys, Inc. All Rights Reserved.              
  This software and the associated documentation are proprietary
  to Synopsys, Inc. This software may only be used in accordance
  with the terms and conditions of a written license agreement with
  Synopsys, Inc. All other use, reproduction, or distribution of
  this software is strictly prohibited.
  Input File: nmos@50u_difLW.sp                                                 
  Command line options: C:\synopsys\Hspice_O-2018.09-SP2\WIN64\hspice.com -i nmos@50u_difLW.sp -o C:\sdsy\case1\nmos@50u_difLW.lis
  Start time: Fri Oct 29 10:40:42 2021
  lic:  
  lic: FLEXlm: SDK_11.7.3 
  lic: USER:   admin                HOSTNAME: DESKTOP-3KO7170 
  lic: HOSTID: "d83bbfb49802"       PID:      45372 
  lic: Using FLEXlm license file: 
  lic: 27000@DESKTOP-3KO7170 
  lic: Checkout 1 hspice 
  lic: License/Maintenance for hspice will expire on 30-dec-2029/2019.2019 
  lic: 1(in_use)/99(total) FLOATING license(s) on SERVER 27000@DESKTOP-3KO7170 
  lic:   
  
      

Element variations(Local):   element              parameter
 *****************************************************************
 ******  option summary
 ******
 runlvl  = 3         bypass  = 2.0000    
 ******
 

 ****** dc transfer curves tnom=  25.000 temp=  25.000 ******
x

 volt         current    voltage   
             m1         vin        
    0.          0.         0.      
    1.00000m  612.0283n    1.0000m 
    2.00000m    1.2208u    2.0000m 
    3.00000m    1.8264u    3.0000m 
    4.00000m    2.4288u    4.0000m 
    5.00000m    3.0280u    5.0000m 
    6.00000m    3.6241u    6.0000m 
    7.00000m    4.2170u    7.0000m 
    8.00000m    4.8068u    8.0000m 
    9.00000m    5.3936u    9.0000m 
   10.00000m    5.9772u   10.0000m 
   11.00000m    6.5579u   11.0000m 
   12.00000m    7.1355u   12.0000m 
   13.00000m    7.7100u   13.0000m 
   14.00000m    8.2816u   14.0000m 
   15.00000m    8.8503u   15.0000m 
   16.00000m    9.4159u   16.0000m 
   17.00000m    9.9787u   17.0000m 
   18.00000m   10.5385u   18.0000m 
   19.00000m   11.0954u   19.0000m 
   20.00000m   11.6495u   20.0000m 
   21.00000m   12.2007u   21.0000m 
   22.00000m   12.7491u   22.0000m 
   23.00000m   13.2946u   23.0000m 
   24.00000m   13.8374u   24.0000m 
   25.00000m   14.3773u   25.0000m 
   26.00000m   14.9145u   26.0000m 
   27.00000m   15.4489u   27.0000m 
   28.00000m   15.9806u   28.0000m 
   29.00000m   16.5096u   29.0000m 
   30.00000m   17.0359u   30.0000m 
   31.00000m   17.5595u   31.0000m 
   32.00000m   18.0805u   32.0000m 
   33.00000m   18.5988u   33.0000m 
   34.00000m   19.1144u   34.0000m 
   35.00000m   19.6275u   35.0000m 
   36.00000m   20.1379u   36.0000m 
   37.00000m   20.6458u   37.0000m 
   38.00000m   21.1511u   38.0000m 
   39.00000m   21.6539u   39.0000m 
   40.00000m   22.1541u   40.0000m 
   41.00000m   22.6518u   41.0000m 
   42.00000m   23.1469u   42.0000m 
   43.00000m   23.6396u   43.0000m 
   44.00000m   24.1299u   44.0000m 
   45.00000m   24.6176u   45.0000m 
   46.00000m   25.1029u   46.0000m 
   47.00000m   25.5858u   47.0000m 
   48.00000m   26.0663u   48.0000m 
   49.00000m   26.5444u   49.0000m 
   50.00000m   27.0201u   50.0000m 
   51.00000m   27.4934u   51.0000m 
   52.00000m   27.9644u   52.0000m 
   53.00000m   28.4330u   53.0000m 
   54.00000m   28.8993u   54.0000m 
   55.00000m   29.3632u   55.0000m 
   56.00000m   29.8249u   56.0000m 
   57.00000m   30.2843u   57.0000m 
   58.00000m   30.7414u   58.0000m 
   59.00000m   31.1962u   59.0000m 
   60.00000m   31.6488u   60.0000m 
   61.00000m   32.0992u   61.0000m 
   62.00000m   32.5473u   62.0000m 
   63.00000m   32.9933u   63.0000m 
   64.00000m   33.4370u   64.0000m 
   65.00000m   33.8786u   65.0000m 
   66.00000m   34.3180u   66.0000m 
   67.00000m   34.7552u   67.0000m 
   68.00000m   35.1903u   68.0000m 
   69.00000m   35.6232u   69.0000m 
   70.00000m   36.0541u   70.0000m 
   71.00000m   36.4828u   71.0000m 
   72.00000m   36.9094u   72.0000m 
   73.00000m   37.3340u   73.0000m 
   74.00000m   37.7565u   74.0000m 
   75.00000m   38.1769u   75.0000m 
   76.00000m   38.5952u   76.0000m 
   77.00000m   39.0116u   77.0000m 
   78.00000m   39.4259u   78.0000m 
   79.00000m   39.8382u   79.0000m 
   80.00000m   40.2485u   80.0000m 
   81.00000m   40.6568u   81.0000m 
   82.00000m   41.0631u   82.0000m 
   83.00000m   41.4675u   83.0000m 
   84.00000m   41.8699u   84.0000m 
   85.00000m   42.2703u   85.0000m 
   86.00000m   42.6689u   86.0000m 
   87.00000m   43.0655u   87.0000m 
   88.00000m   43.4602u   88.0000m 
   89.00000m   43.8529u   89.0000m 
   90.00000m   44.2438u   90.0000m 
   91.00000m   44.6328u   91.0000m 
   92.00000m   45.0200u   92.0000m 
   93.00000m   45.4053u   93.0000m 
   94.00000m   45.7887u   94.0000m 
   95.00000m   46.1703u   95.0000m 
   96.00000m   46.5500u   96.0000m 
   97.00000m   46.9280u   97.0000m 
   98.00000m   47.3041u   98.0000m 
   99.00000m   47.6784u   99.0000m 
  100.00000m   48.0510u  100.0000m 
  101.00000m   48.4217u  101.0000m 
  102.00000m   48.7907u  102.0000m 
  103.00000m   49.1580u  103.0000m 
  104.00000m   49.5234u  104.0000m 
  105.00000m   49.8872u  105.0000m 
  106.00000m   50.2492u  106.0000m 
  107.00000m   50.6095u  107.0000m 
  108.00000m   50.9680u  108.0000m 
  109.00000m   51.3249u  109.0000m 
  110.00000m   51.6801u  110.0000m 
  111.00000m   52.0336u  111.0000m 
  112.00000m   52.3854u  112.0000m 
  113.00000m   52.7355u  113.0000m 
  114.00000m   53.0840u  114.0000m 
  115.00000m   53.4308u  115.0000m 
  116.00000m   53.7760u  116.0000m 
  117.00000m   54.1195u  117.0000m 
  118.00000m   54.4615u  118.0000m 
  119.00000m   54.8018u  119.0000m 
  120.00000m   55.1405u  120.0000m 
  121.00000m   55.4776u  121.0000m 
  122.00000m   55.8131u  122.0000m 
  123.00000m   56.1470u  123.0000m 
  124.00000m   56.4794u  124.0000m 
  125.00000m   56.8102u  125.0000m 
  126.00000m   57.1394u  126.0000m 
  127.00000m   57.4671u  127.0000m 
  128.00000m   57.7933u  128.0000m 
  129.00000m   58.1179u  129.0000m 
  130.00000m   58.4410u  130.0000m 
  131.00000m   58.7626u  131.0000m 
  132.00000m   59.0826u  132.0000m 
  133.00000m   59.4012u  133.0000m 
  134.00000m   59.7183u  134.0000m 
  135.00000m   60.0338u  135.0000m 
  136.00000m   60.3479u  136.0000m 
  137.00000m   60.6606u  137.0000m 
  138.00000m   60.9717u  138.0000m 
  139.00000m   61.2815u  139.0000m 
  140.00000m   61.5897u  140.0000m 
  141.00000m   61.8965u  141.0000m 
  142.00000m   62.2019u  142.0000m 
  143.00000m   62.5059u  143.0000m 
  144.00000m   62.8084u  144.0000m 
  145.00000m   63.1096u  145.0000m 
  146.00000m   63.4093u  146.0000m 
  147.00000m   63.7076u  147.0000m 
  148.00000m   64.0046u  148.0000m 
  149.00000m   64.3001u  149.0000m 
  150.00000m   64.5943u  150.0000m 
  151.00000m   64.8871u  151.0000m 
  152.00000m   65.1785u  152.0000m 
  153.00000m   65.4686u  153.0000m 
  154.00000m   65.7574u  154.0000m 
  155.00000m   66.0448u  155.0000m 
  156.00000m   66.3308u  156.0000m 
  157.00000m   66.6156u  157.0000m 
  158.00000m   66.8990u  158.0000m 
  159.00000m   67.1810u  159.0000m 
  160.00000m   67.4618u  160.0000m 
  161.00000m   67.7413u  161.0000m 
  162.00000m   68.0195u  162.0000m 
  163.00000m   68.2964u  163.0000m 
  164.00000m   68.5720u  164.0000m 
  165.00000m   68.8463u  165.0000m 
  166.00000m   69.1193u  166.0000m 
  167.00000m   69.3911u  167.0000m 
  168.00000m   69.6617u  168.0000m 
  169.00000m   69.9309u  169.0000m 
  170.00000m   70.1990u  170.0000m 
  171.00000m   70.4657u  171.0000m 
  172.00000m   70.7313u  172.0000m 
  173.00000m   70.9956u  173.0000m 
  174.00000m   71.2587u  174.0000m 
  175.00000m   71.5206u  175.0000m 
  176.00000m   71.7813u  176.0000m 
  177.00000m   72.0407u  177.0000m 
  178.00000m   72.2990u  178.0000m 
  179.00000m   72.5560u  179.0000m 
  180.00000m   72.8119u  180.0000m 
  181.00000m   73.0666u  181.0000m 
  182.00000m   73.3201u  182.0000m 
  183.00000m   73.5725u  183.0000m 
  184.00000m   73.8237u  184.0000m 
  185.00000m   74.0737u  185.0000m 
  186.00000m   74.3225u  186.0000m 
  187.00000m   74.5703u  187.0000m 
  188.00000m   74.8168u  188.0000m 
  189.00000m   75.0623u  189.0000m 
  190.00000m   75.3066u  190.0000m 
  191.00000m   75.5497u  191.0000m 
  192.00000m   75.7918u  192.0000m 
  193.00000m   76.0327u  193.0000m 
  194.00000m   76.2725u  194.0000m 
  195.00000m   76.5112u  195.0000m 
  196.00000m   76.7488u  196.0000m 
  197.00000m   76.9853u  197.0000m 
  198.00000m   77.2207u  198.0000m 
  199.00000m   77.4551u  199.0000m 
  200.00000m   77.6883u  200.0000m 
  201.00000m   77.9205u  201.0000m 
  202.00000m   78.1516u  202.0000m 
  203.00000m   78.3816u  203.0000m 
  204.00000m   78.6106u  204.0000m 
  205.00000m   78.8385u  205.0000m 
  206.00000m   79.0654u  206.0000m 
  207.00000m   79.2912u  207.0000m 
  208.00000m   79.5160u  208.0000m 
  209.00000m   79.7397u  209.0000m 
  210.00000m   79.9624u  210.0000m 
  211.00000m   80.1841u  211.0000m 
  212.00000m   80.4047u  212.0000m 
  213.00000m   80.6243u  213.0000m 
  214.00000m   80.8429u  214.0000m 
  215.00000m   81.0605u  215.0000m 
  216.00000m   81.2771u  216.0000m 
  217.00000m   81.4927u  217.0000m 
  218.00000m   81.7073u  218.0000m 
  219.00000m   81.9209u  219.0000m 
  220.00000m   82.1336u  220.0000m 
  221.00000m   82.3452u  221.0000m 
  222.00000m   82.5559u  222.0000m 
  223.00000m   82.7655u  223.0000m 
  224.00000m   82.9743u  224.0000m 
  225.00000m   83.1820u  225.0000m 
  226.00000m   83.3888u  226.0000m 
  227.00000m   83.5946u  227.0000m 
  228.00000m   83.7995u  228.0000m 
  229.00000m   84.0034u  229.0000m 
  230.00000m   84.2064u  230.0000m 
  231.00000m   84.4085u  231.0000m 
  232.00000m   84.6096u  232.0000m 
  233.00000m   84.8097u  233.0000m 
  234.00000m   85.0090u  234.0000m 
  235.00000m   85.2073u  235.0000m 
  236.00000m   85.4047u  236.0000m 
  237.00000m   85.6012u  237.0000m 
  238.00000m   85.7968u  238.0000m 
  239.00000m   85.9914u  239.0000m 
  240.00000m   86.1852u  240.0000m 
  241.00000m   86.3781u  241.0000m 
  242.00000m   86.5700u  242.0000m 
  243.00000m   86.7611u  243.0000m 
  244.00000m   86.9513u  244.0000m 
  245.00000m   87.1406u  245.0000m 
  246.00000m   87.3290u  246.0000m 
  247.00000m   87.5166u  247.0000m 
  248.00000m   87.7033u  248.0000m 
  249.00000m   87.8891u  249.0000m 
  250.00000m   88.0740u  250.0000m 
  251.00000m   88.2581u  251.0000m 
  252.00000m   88.4413u  252.0000m 
  253.00000m   88.6237u  253.0000m 
  254.00000m   88.8052u  254.0000m 
  255.00000m   88.9859u  255.0000m 
  256.00000m   89.1657u  256.0000m 
  257.00000m   89.3447u  257.0000m 
  258.00000m   89.5228u  258.0000m 
  259.00000m   89.7001u  259.0000m 
  260.00000m   89.8766u  260.0000m 
  261.00000m   90.0523u  261.0000m 
  262.00000m   90.2271u  262.0000m 
  263.00000m   90.4011u  263.0000m 
  264.00000m   90.5743u  264.0000m 
  265.00000m   90.7467u  265.0000m 
  266.00000m   90.9183u  266.0000m 
  267.00000m   91.0891u  267.0000m 
  268.00000m   91.2591u  268.0000m 
  269.00000m   91.4283u  269.0000m 
  270.00000m   91.5966u  270.0000m 
  271.00000m   91.7642u  271.0000m 
  272.00000m   91.9310u  272.0000m 
  273.00000m   92.0971u  273.0000m 
  274.00000m   92.2623u  274.0000m 
  275.00000m   92.4268u  275.0000m 
  276.00000m   92.5904u  276.0000m 
  277.00000m   92.7533u  277.0000m 
  278.00000m   92.9155u  278.0000m 
  279.00000m   93.0769u  279.0000m 
  280.00000m   93.2375u  280.0000m 
  281.00000m   93.3973u  281.0000m 
  282.00000m   93.5564u  282.0000m 
  283.00000m   93.7148u  283.0000m 
  284.00000m   93.8724u  284.0000m 
  285.00000m   94.0292u  285.0000m 
  286.00000m   94.1853u  286.0000m 
  287.00000m   94.3407u  287.0000m 
  288.00000m   94.4953u  288.0000m 
  289.00000m   94.6492u  289.0000m 
  290.00000m   94.8023u  290.0000m 
  291.00000m   94.9548u  291.0000m 
  292.00000m   95.1065u  292.0000m 
  293.00000m   95.2574u  293.0000m 
  294.00000m   95.4077u  294.0000m 
  295.00000m   95.5572u  295.0000m 
  296.00000m   95.7061u  296.0000m 
  297.00000m   95.8542u  297.0000m 
  298.00000m   96.0016u  298.0000m 
  299.00000m   96.1483u  299.0000m 
  300.00000m   96.2943u  300.0000m 
  301.00000m   96.4396u  301.0000m 
  302.00000m   96.5842u  302.0000m 
  303.00000m   96.7281u  303.0000m 
  304.00000m   96.8713u  304.0000m 
  305.00000m   97.0138u  305.0000m 
  306.00000m   97.1556u  306.0000m 
  307.00000m   97.2968u  307.0000m 
  308.00000m   97.4373u  308.0000m 
  309.00000m   97.5770u  309.0000m 
  310.00000m   97.7162u  310.0000m 
  311.00000m   97.8546u  311.0000m 
  312.00000m   97.9924u  312.0000m 
  313.00000m   98.1295u  313.0000m 
  314.00000m   98.2659u  314.0000m 
  315.00000m   98.4017u  315.0000m 
  316.00000m   98.5368u  316.0000m 
  317.00000m   98.6713u  317.0000m 
  318.00000m   98.8051u  318.0000m 
  319.00000m   98.9382u  319.0000m 
  320.00000m   99.0707u  320.0000m 
  321.00000m   99.2026u  321.0000m 
  322.00000m   99.3338u  322.0000m 
  323.00000m   99.4644u  323.0000m 
  324.00000m   99.5943u  324.0000m 
  325.00000m   99.7236u  325.0000m 
  326.00000m   99.8523u  326.0000m 
  327.00000m   99.9803u  327.0000m 
  328.00000m  100.1077u  328.0000m 
  329.00000m  100.2345u  329.0000m 
  330.00000m  100.3606u  330.0000m 
  331.00000m  100.4861u  331.0000m 
  332.00000m  100.6111u  332.0000m 
  333.00000m  100.7353u  333.0000m 
  334.00000m  100.8590u  334.0000m 
  335.00000m  100.9821u  335.0000m 
  336.00000m  101.1045u  336.0000m 
  337.00000m  101.2264u  337.0000m 
  338.00000m  101.3476u  338.0000m 
  339.00000m  101.4682u  339.0000m 
  340.00000m  101.5883u  340.0000m 
  341.00000m  101.7077u  341.0000m 
  342.00000m  101.8265u  342.0000m 
  343.00000m  101.9448u  343.0000m 
  344.00000m  102.0624u  344.0000m 
  345.00000m  102.1795u  345.0000m 
  346.00000m  102.2959u  346.0000m 
  347.00000m  102.4118u  347.0000m 
  348.00000m  102.5271u  348.0000m 
  349.00000m  102.6418u  349.0000m 
  350.00000m  102.7560u  350.0000m 
  351.00000m  102.8695u  351.0000m 
  352.00000m  102.9825u  352.0000m 
  353.00000m  103.0949u  353.0000m 
  354.00000m  103.2068u  354.0000m 
  355.00000m  103.3181u  355.0000m 
  356.00000m  103.4288u  356.0000m 
  357.00000m  103.5389u  357.0000m 
  358.00000m  103.6485u  358.0000m 
  359.00000m  103.7575u  359.0000m 
  360.00000m  103.8660u  360.0000m 
  361.00000m  103.9739u  361.0000m 
  362.00000m  104.0813u  362.0000m 
  363.00000m  104.1881u  363.0000m 
  364.00000m  104.2943u  364.0000m 
  365.00000m  104.4001u  365.0000m 
  366.00000m  104.5052u  366.0000m 
  367.00000m  104.5466u  367.0000m 
  368.00000m  104.5779u  368.0000m 
  369.00000m  104.6092u  369.0000m 
  370.00000m  104.6404u  370.0000m 
  371.00000m  104.6715u  371.0000m 
  372.00000m  104.7026u  372.0000m 
  373.00000m  104.7336u  373.0000m 
  374.00000m  104.7645u  374.0000m 
  375.00000m  104.7954u  375.0000m 
  376.00000m  104.8262u  376.0000m 
  377.00000m  104.8569u  377.0000m 
  378.00000m  104.8876u  378.0000m 
  379.00000m  104.9182u  379.0000m 
  380.00000m  104.9487u  380.0000m 
  381.00000m  104.9792u  381.0000m 
  382.00000m  105.0096u  382.0000m 
  383.00000m  105.0399u  383.0000m 
  384.00000m  105.0702u  384.0000m 
  385.00000m  105.1004u  385.0000m 
  386.00000m  105.1306u  386.0000m 
  387.00000m  105.1607u  387.0000m 
  388.00000m  105.1907u  388.0000m 
  389.00000m  105.2207u  389.0000m 
  390.00000m  105.2506u  390.0000m 
  391.00000m  105.2804u  391.0000m 
  392.00000m  105.3102u  392.0000m 
  393.00000m  105.3400u  393.0000m 
  394.00000m  105.3696u  394.0000m 
  395.00000m  105.3993u  395.0000m 
  396.00000m  105.4288u  396.0000m 
  397.00000m  105.4583u  397.0000m 
  398.00000m  105.4878u  398.0000m 
  399.00000m  105.5172u  399.0000m 
  400.00000m  105.5465u  400.0000m 
  401.00000m  105.5758u  401.0000m 
  402.00000m  105.6050u  402.0000m 
  403.00000m  105.6342u  403.0000m 
  404.00000m  105.6633u  404.0000m 
  405.00000m  105.6924u  405.0000m 
  406.00000m  105.7214u  406.0000m 
  407.00000m  105.7503u  407.0000m 
  408.00000m  105.7792u  408.0000m 
  409.00000m  105.8081u  409.0000m 
  410.00000m  105.8369u  410.0000m 
  411.00000m  105.8657u  411.0000m 
  412.00000m  105.8944u  412.0000m 
  413.00000m  105.9230u  413.0000m 
  414.00000m  105.9516u  414.0000m 
  415.00000m  105.9802u  415.0000m 
  416.00000m  106.0087u  416.0000m 
  417.00000m  106.0371u  417.0000m 
  418.00000m  106.0655u  418.0000m 
  419.00000m  106.0939u  419.0000m 
  420.00000m  106.1222u  420.0000m 
  421.00000m  106.1504u  421.0000m 
  422.00000m  106.1787u  422.0000m 
  423.00000m  106.2068u  423.0000m 
  424.00000m  106.2349u  424.0000m 
  425.00000m  106.2630u  425.0000m 
  426.00000m  106.2910u  426.0000m 
  427.00000m  106.3190u  427.0000m 
  428.00000m  106.3470u  428.0000m 
  429.00000m  106.3748u  429.0000m 
  430.00000m  106.4027u  430.0000m 
  431.00000m  106.4305u  431.0000m 
  432.00000m  106.4582u  432.0000m 
  433.00000m  106.4860u  433.0000m 
  434.00000m  106.5136u  434.0000m 
  435.00000m  106.5413u  435.0000m 
  436.00000m  106.5688u  436.0000m 
  437.00000m  106.5964u  437.0000m 
  438.00000m  106.6239u  438.0000m 
  439.00000m  106.6513u  439.0000m 
  440.00000m  106.6787u  440.0000m 
  441.00000m  106.7061u  441.0000m 
  442.00000m  106.7334u  442.0000m 
  443.00000m  106.7607u  443.0000m 
  444.00000m  106.7880u  444.0000m 
  445.00000m  106.8152u  445.0000m 
  446.00000m  106.8423u  446.0000m 
  447.00000m  106.8695u  447.0000m 
  448.00000m  106.8966u  448.0000m 
  449.00000m  106.9236u  449.0000m 
  450.00000m  106.9506u  450.0000m 
  451.00000m  106.9776u  451.0000m 
  452.00000m  107.0045u  452.0000m 
  453.00000m  107.0314u  453.0000m 
  454.00000m  107.0582u  454.0000m 
  455.00000m  107.0851u  455.0000m 
  456.00000m  107.1118u  456.0000m 
  457.00000m  107.1386u  457.0000m 
  458.00000m  107.1653u  458.0000m 
  459.00000m  107.1919u  459.0000m 
  460.00000m  107.2186u  460.0000m 
  461.00000m  107.2451u  461.0000m 
  462.00000m  107.2717u  462.0000m 
  463.00000m  107.2982u  463.0000m 
  464.00000m  107.3247u  464.0000m 
  465.00000m  107.3511u  465.0000m 
  466.00000m  107.3775u  466.0000m 
  467.00000m  107.4039u  467.0000m 
  468.00000m  107.4302u  468.0000m 
  469.00000m  107.4565u  469.0000m 
  470.00000m  107.4828u  470.0000m 
  471.00000m  107.5090u  471.0000m 
  472.00000m  107.5352u  472.0000m 
  473.00000m  107.5614u  473.0000m 
  474.00000m  107.5875u  474.0000m 
  475.00000m  107.6136u  475.0000m 
  476.00000m  107.6397u  476.0000m 
  477.00000m  107.6657u  477.0000m 
  478.00000m  107.6917u  478.0000m 
  479.00000m  107.7177u  479.0000m 
  480.00000m  107.7436u  480.0000m 
  481.00000m  107.7695u  481.0000m 
  482.00000m  107.7953u  482.0000m 
  483.00000m  107.8212u  483.0000m 
  484.00000m  107.8470u  484.0000m 
  485.00000m  107.8727u  485.0000m 
  486.00000m  107.8984u  486.0000m 
  487.00000m  107.9241u  487.0000m 
  488.00000m  107.9498u  488.0000m 
  489.00000m  107.9754u  489.0000m 
  490.00000m  108.0011u  490.0000m 
  491.00000m  108.0266u  491.0000m 
  492.00000m  108.0522u  492.0000m 
  493.00000m  108.0777u  493.0000m 
  494.00000m  108.1032u  494.0000m 
  495.00000m  108.1286u  495.0000m 
  496.00000m  108.1540u  496.0000m 
  497.00000m  108.1794u  497.0000m 
  498.00000m  108.2048u  498.0000m 
  499.00000m  108.2301u  499.0000m 
  500.00000m  108.2554u  500.0000m 
  501.00000m  108.2807u  501.0000m 
  502.00000m  108.3059u  502.0000m 
  503.00000m  108.3311u  503.0000m 
  504.00000m  108.3563u  504.0000m 
  505.00000m  108.3815u  505.0000m 
  506.00000m  108.4066u  506.0000m 
  507.00000m  108.4317u  507.0000m 
  508.00000m  108.4568u  508.0000m 
  509.00000m  108.4818u  509.0000m 
  510.00000m  108.5068u  510.0000m 
  511.00000m  108.5318u  511.0000m 
  512.00000m  108.5567u  512.0000m 
  513.00000m  108.5817u  513.0000m 
  514.00000m  108.6066u  514.0000m 
  515.00000m  108.6314u  515.0000m 
  516.00000m  108.6563u  516.0000m 
  517.00000m  108.6811u  517.0000m 
  518.00000m  108.7059u  518.0000m 
  519.00000m  108.7306u  519.0000m 
  520.00000m  108.7554u  520.0000m 
  521.00000m  108.7801u  521.0000m 
  522.00000m  108.8048u  522.0000m 
  523.00000m  108.8294u  523.0000m 
  524.00000m  108.8541u  524.0000m 
  525.00000m  108.8787u  525.0000m 
  526.00000m  108.9032u  526.0000m 
  527.00000m  108.9278u  527.0000m 
  528.00000m  108.9523u  528.0000m 
  529.00000m  108.9768u  529.0000m 
  530.00000m  109.0013u  530.0000m 
  531.00000m  109.0257u  531.0000m 
  532.00000m  109.0502u  532.0000m 
  533.00000m  109.0746u  533.0000m 
  534.00000m  109.0989u  534.0000m 
  535.00000m  109.1233u  535.0000m 
  536.00000m  109.1476u  536.0000m 
  537.00000m  109.1719u  537.0000m 
  538.00000m  109.1962u  538.0000m 
  539.00000m  109.2204u  539.0000m 
  540.00000m  109.2446u  540.0000m 
  541.00000m  109.2688u  541.0000m 
  542.00000m  109.2930u  542.0000m 
  543.00000m  109.3172u  543.0000m 
  544.00000m  109.3413u  544.0000m 
  545.00000m  109.3654u  545.0000m 
  546.00000m  109.3895u  546.0000m 
  547.00000m  109.4135u  547.0000m 
  548.00000m  109.4376u  548.0000m 
  549.00000m  109.4616u  549.0000m 
  550.00000m  109.4856u  550.0000m 
  551.00000m  109.5095u  551.0000m 
  552.00000m  109.5335u  552.0000m 
  553.00000m  109.5574u  553.0000m 
  554.00000m  109.5813u  554.0000m 
  555.00000m  109.6052u  555.0000m 
  556.00000m  109.6290u  556.0000m 
  557.00000m  109.6528u  557.0000m 
  558.00000m  109.6766u  558.0000m 
  559.00000m  109.7004u  559.0000m 
  560.00000m  109.7242u  560.0000m 
  561.00000m  109.7479u  561.0000m 
  562.00000m  109.7716u  562.0000m 
  563.00000m  109.7953u  563.0000m 
  564.00000m  109.8190u  564.0000m 
  565.00000m  109.8426u  565.0000m 
  566.00000m  109.8663u  566.0000m 
  567.00000m  109.8899u  567.0000m 
  568.00000m  109.9134u  568.0000m 
  569.00000m  109.9370u  569.0000m 
  570.00000m  109.9605u  570.0000m 
  571.00000m  109.9841u  571.0000m 
  572.00000m  110.0076u  572.0000m 
  573.00000m  110.0310u  573.0000m 
  574.00000m  110.0545u  574.0000m 
  575.00000m  110.0779u  575.0000m 
  576.00000m  110.1013u  576.0000m 
  577.00000m  110.1247u  577.0000m 
  578.00000m  110.1481u  578.0000m 
  579.00000m  110.1715u  579.0000m 
  580.00000m  110.1948u  580.0000m 
  581.00000m  110.2181u  581.0000m 
  582.00000m  110.2414u  582.0000m 
  583.00000m  110.2647u  583.0000m 
  584.00000m  110.2879u  584.0000m 
  585.00000m  110.3112u  585.0000m 
  586.00000m  110.3344u  586.0000m 
  587.00000m  110.3576u  587.0000m 
  588.00000m  110.3807u  588.0000m 
  589.00000m  110.4039u  589.0000m 
  590.00000m  110.4270u  590.0000m 
  591.00000m  110.4501u  591.0000m 
  592.00000m  110.4732u  592.0000m 
  593.00000m  110.4963u  593.0000m 
  594.00000m  110.5193u  594.0000m 
  595.00000m  110.5424u  595.0000m 
  596.00000m  110.5654u  596.0000m 
  597.00000m  110.5884u  597.0000m 
  598.00000m  110.6114u  598.0000m 
  599.00000m  110.6343u  599.0000m 
  600.00000m  110.6573u  600.0000m 
  601.00000m  110.6802u  601.0000m 
  602.00000m  110.7031u  602.0000m 
  603.00000m  110.7260u  603.0000m 
  604.00000m  110.7488u  604.0000m 
  605.00000m  110.7717u  605.0000m 
  606.00000m  110.7945u  606.0000m 
  607.00000m  110.8173u  607.0000m 
  608.00000m  110.8401u  608.0000m 
  609.00000m  110.8629u  609.0000m 
  610.00000m  110.8856u  610.0000m 
  611.00000m  110.9084u  611.0000m 
  612.00000m  110.9311u  612.0000m 
  613.00000m  110.9538u  613.0000m 
  614.00000m  110.9765u  614.0000m 
  615.00000m  110.9992u  615.0000m 
  616.00000m  111.0218u  616.0000m 
  617.00000m  111.0444u  617.0000m 
  618.00000m  111.0670u  618.0000m 
  619.00000m  111.0896u  619.0000m 
  620.00000m  111.1122u  620.0000m 
  621.00000m  111.1348u  621.0000m 
  622.00000m  111.1573u  622.0000m 
  623.00000m  111.1798u  623.0000m 
  624.00000m  111.2024u  624.0000m 
  625.00000m  111.2248u  625.0000m 
  626.00000m  111.2473u  626.0000m 
  627.00000m  111.2698u  627.0000m 
  628.00000m  111.2922u  628.0000m 
  629.00000m  111.3146u  629.0000m 
  630.00000m  111.3371u  630.0000m 
  631.00000m  111.3594u  631.0000m 
  632.00000m  111.3818u  632.0000m 
  633.00000m  111.4042u  633.0000m 
  634.00000m  111.4265u  634.0000m 
  635.00000m  111.4488u  635.0000m 
  636.00000m  111.4712u  636.0000m 
  637.00000m  111.4934u  637.0000m 
  638.00000m  111.5157u  638.0000m 
  639.00000m  111.5380u  639.0000m 
  640.00000m  111.5602u  640.0000m 
  641.00000m  111.5824u  641.0000m 
  642.00000m  111.6047u  642.0000m 
  643.00000m  111.6269u  643.0000m 
  644.00000m  111.6490u  644.0000m 
  645.00000m  111.6712u  645.0000m 
  646.00000m  111.6933u  646.0000m 
  647.00000m  111.7155u  647.0000m 
  648.00000m  111.7376u  648.0000m 
  649.00000m  111.7597u  649.0000m 
  650.00000m  111.7818u  650.0000m 
  651.00000m  111.8038u  651.0000m 
  652.00000m  111.8259u  652.0000m 
  653.00000m  111.8479u  653.0000m 
  654.00000m  111.8700u  654.0000m 
  655.00000m  111.8920u  655.0000m 
  656.00000m  111.9140u  656.0000m 
  657.00000m  111.9359u  657.0000m 
  658.00000m  111.9579u  658.0000m 
  659.00000m  111.9798u  659.0000m 
  660.00000m  112.0018u  660.0000m 
  661.00000m  112.0237u  661.0000m 
  662.00000m  112.0456u  662.0000m 
  663.00000m  112.0675u  663.0000m 
  664.00000m  112.0894u  664.0000m 
  665.00000m  112.1112u  665.0000m 
  666.00000m  112.1331u  666.0000m 
  667.00000m  112.1549u  667.0000m 
  668.00000m  112.1767u  668.0000m 
  669.00000m  112.1985u  669.0000m 
  670.00000m  112.2203u  670.0000m 
  671.00000m  112.2421u  671.0000m 
  672.00000m  112.2638u  672.0000m 
  673.00000m  112.2856u  673.0000m 
  674.00000m  112.3073u  674.0000m 
  675.00000m  112.3290u  675.0000m 
  676.00000m  112.3507u  676.0000m 
  677.00000m  112.3724u  677.0000m 
  678.00000m  112.3940u  678.0000m 
  679.00000m  112.4157u  679.0000m 
  680.00000m  112.4373u  680.0000m 
  681.00000m  112.4590u  681.0000m 
  682.00000m  112.4806u  682.0000m 
  683.00000m  112.5022u  683.0000m 
  684.00000m  112.5238u  684.0000m 
  685.00000m  112.5453u  685.0000m 
  686.00000m  112.5669u  686.0000m 
  687.00000m  112.5885u  687.0000m 
  688.00000m  112.6100u  688.0000m 
  689.00000m  112.6315u  689.0000m 
  690.00000m  112.6530u  690.0000m 
  691.00000m  112.6745u  691.0000m 
  692.00000m  112.6960u  692.0000m 
  693.00000m  112.7174u  693.0000m 
  694.00000m  112.7389u  694.0000m 
  695.00000m  112.7603u  695.0000m 
  696.00000m  112.7818u  696.0000m 
  697.00000m  112.8032u  697.0000m 
  698.00000m  112.8246u  698.0000m 
  699.00000m  112.8460u  699.0000m 
  700.00000m  112.8673u  700.0000m 
  701.00000m  112.8887u  701.0000m 
  702.00000m  112.9100u  702.0000m 
  703.00000m  112.9314u  703.0000m 
  704.00000m  112.9527u  704.0000m 
  705.00000m  112.9740u  705.0000m 
  706.00000m  112.9953u  706.0000m 
  707.00000m  113.0166u  707.0000m 
  708.00000m  113.0378u  708.0000m 
  709.00000m  113.0591u  709.0000m 
  710.00000m  113.0803u  710.0000m 
  711.00000m  113.1016u  711.0000m 
  712.00000m  113.1228u  712.0000m 
  713.00000m  113.1440u  713.0000m 
  714.00000m  113.1652u  714.0000m 
  715.00000m  113.1864u  715.0000m 
  716.00000m  113.2075u  716.0000m 
  717.00000m  113.2287u  717.0000m 
  718.00000m  113.2498u  718.0000m 
  719.00000m  113.2710u  719.0000m 
  720.00000m  113.2921u  720.0000m 
  721.00000m  113.3132u  721.0000m 
  722.00000m  113.3343u  722.0000m 
  723.00000m  113.3554u  723.0000m 
  724.00000m  113.3764u  724.0000m 
  725.00000m  113.3975u  725.0000m 
  726.00000m  113.4185u  726.0000m 
  727.00000m  113.4396u  727.0000m 
  728.00000m  113.4606u  728.0000m 
  729.00000m  113.4816u  729.0000m 
  730.00000m  113.5026u  730.0000m 
  731.00000m  113.5236u  731.0000m 
  732.00000m  113.5446u  732.0000m 
  733.00000m  113.5655u  733.0000m 
  734.00000m  113.5865u  734.0000m 
  735.00000m  113.6074u  735.0000m 
  736.00000m  113.6284u  736.0000m 
  737.00000m  113.6493u  737.0000m 
  738.00000m  113.6702u  738.0000m 
  739.00000m  113.6911u  739.0000m 
  740.00000m  113.7120u  740.0000m 
  741.00000m  113.7328u  741.0000m 
  742.00000m  113.7537u  742.0000m 
  743.00000m  113.7745u  743.0000m 
  744.00000m  113.7954u  744.0000m 
  745.00000m  113.8162u  745.0000m 
  746.00000m  113.8370u  746.0000m 
  747.00000m  113.8578u  747.0000m 
  748.00000m  113.8786u  748.0000m 
  749.00000m  113.8994u  749.0000m 
  750.00000m  113.9201u  750.0000m 
  751.00000m  113.9409u  751.0000m 
  752.00000m  113.9617u  752.0000m 
  753.00000m  113.9824u  753.0000m 
  754.00000m  114.0031u  754.0000m 
  755.00000m  114.0238u  755.0000m 
  756.00000m  114.0445u  756.0000m 
  757.00000m  114.0652u  757.0000m 
  758.00000m  114.0859u  758.0000m 
  759.00000m  114.1066u  759.0000m 
  760.00000m  114.1272u  760.0000m 
  761.00000m  114.1479u  761.0000m 
  762.00000m  114.1685u  762.0000m 
  763.00000m  114.1891u  763.0000m 
  764.00000m  114.2098u  764.0000m 
  765.00000m  114.2304u  765.0000m 
  766.00000m  114.2510u  766.0000m 
  767.00000m  114.2715u  767.0000m 
  768.00000m  114.2921u  768.0000m 
  769.00000m  114.3127u  769.0000m 
  770.00000m  114.3332u  770.0000m 
  771.00000m  114.3538u  771.0000m 
  772.00000m  114.3743u  772.0000m 
  773.00000m  114.3948u  773.0000m 
  774.00000m  114.4153u  774.0000m 
  775.00000m  114.4358u  775.0000m 
  776.00000m  114.4563u  776.0000m 
  777.00000m  114.4768u  777.0000m 
  778.00000m  114.4973u  778.0000m 
  779.00000m  114.5177u  779.0000m 
  780.00000m  114.5382u  780.0000m 
  781.00000m  114.5586u  781.0000m 
  782.00000m  114.5791u  782.0000m 
  783.00000m  114.5995u  783.0000m 
  784.00000m  114.6199u  784.0000m 
  785.00000m  114.6403u  785.0000m 
  786.00000m  114.6607u  786.0000m 
  787.00000m  114.6811u  787.0000m 
  788.00000m  114.7014u  788.0000m 
  789.00000m  114.7218u  789.0000m 
  790.00000m  114.7421u  790.0000m 
  791.00000m  114.7625u  791.0000m 
  792.00000m  114.7828u  792.0000m 
  793.00000m  114.8031u  793.0000m 
  794.00000m  114.8234u  794.0000m 
  795.00000m  114.8437u  795.0000m 
  796.00000m  114.8640u  796.0000m 
  797.00000m  114.8843u  797.0000m 
  798.00000m  114.9046u  798.0000m 
  799.00000m  114.9248u  799.0000m 
  800.00000m  114.9451u  800.0000m 
  801.00000m  114.9653u  801.0000m 
  802.00000m  114.9856u  802.0000m 
  803.00000m  115.0058u  803.0000m 
  804.00000m  115.0260u  804.0000m 
  805.00000m  115.0462u  805.0000m 
  806.00000m  115.0664u  806.0000m 
  807.00000m  115.0866u  807.0000m 
  808.00000m  115.1068u  808.0000m 
  809.00000m  115.1269u  809.0000m 
  810.00000m  115.1471u  810.0000m 
  811.00000m  115.1672u  811.0000m 
  812.00000m  115.1874u  812.0000m 
  813.00000m  115.2075u  813.0000m 
  814.00000m  115.2276u  814.0000m 
  815.00000m  115.2477u  815.0000m 
  816.00000m  115.2678u  816.0000m 
  817.00000m  115.2879u  817.0000m 
  818.00000m  115.3080u  818.0000m 
  819.00000m  115.3281u  819.0000m 
  820.00000m  115.3481u  820.0000m 
  821.00000m  115.3682u  821.0000m 
  822.00000m  115.3882u  822.0000m 
  823.00000m  115.4083u  823.0000m 
  824.00000m  115.4283u  824.0000m 
  825.00000m  115.4483u  825.0000m 
  826.00000m  115.4683u  826.0000m 
  827.00000m  115.4883u  827.0000m 
  828.00000m  115.5083u  828.0000m 
  829.00000m  115.5283u  829.0000m 
  830.00000m  115.5483u  830.0000m 
  831.00000m  115.5683u  831.0000m 
  832.00000m  115.5882u  832.0000m 
  833.00000m  115.6082u  833.0000m 
  834.00000m  115.6281u  834.0000m 
  835.00000m  115.6480u  835.0000m 
  836.00000m  115.6680u  836.0000m 
  837.00000m  115.6879u  837.0000m 
  838.00000m  115.7078u  838.0000m 
  839.00000m  115.7277u  839.0000m 
  840.00000m  115.7476u  840.0000m 
  841.00000m  115.7674u  841.0000m 
  842.00000m  115.7873u  842.0000m 
  843.00000m  115.8072u  843.0000m 
  844.00000m  115.8270u  844.0000m 
  845.00000m  115.8469u  845.0000m 
  846.00000m  115.8667u  846.0000m 
  847.00000m  115.8865u  847.0000m 
  848.00000m  115.9064u  848.0000m 
  849.00000m  115.9262u  849.0000m 
  850.00000m  115.9460u  850.0000m 
  851.00000m  115.9658u  851.0000m 
  852.00000m  115.9856u  852.0000m 
  853.00000m  116.0053u  853.0000m 
  854.00000m  116.0251u  854.0000m 
  855.00000m  116.0449u  855.0000m 
  856.00000m  116.0646u  856.0000m 
  857.00000m  116.0844u  857.0000m 
  858.00000m  116.1041u  858.0000m 
  859.00000m  116.1238u  859.0000m 
  860.00000m  116.1436u  860.0000m 
  861.00000m  116.1633u  861.0000m 
  862.00000m  116.1830u  862.0000m 
  863.00000m  116.2027u  863.0000m 
  864.00000m  116.2224u  864.0000m 
  865.00000m  116.2421u  865.0000m 
  866.00000m  116.2617u  866.0000m 
  867.00000m  116.2814u  867.0000m 
  868.00000m  116.3010u  868.0000m 
  869.00000m  116.3207u  869.0000m 
  870.00000m  116.3403u  870.0000m 
  871.00000m  116.3600u  871.0000m 
  872.00000m  116.3796u  872.0000m 
  873.00000m  116.3992u  873.0000m 
  874.00000m  116.4188u  874.0000m 
  875.00000m  116.4384u  875.0000m 
  876.00000m  116.4580u  876.0000m 
  877.00000m  116.4776u  877.0000m 
  878.00000m  116.4972u  878.0000m 
  879.00000m  116.5168u  879.0000m 
  880.00000m  116.5363u  880.0000m 
  881.00000m  116.5559u  881.0000m 
  882.00000m  116.5754u  882.0000m 
  883.00000m  116.5950u  883.0000m 
  884.00000m  116.6145u  884.0000m 
  885.00000m  116.6340u  885.0000m 
  886.00000m  116.6535u  886.0000m 
  887.00000m  116.6730u  887.0000m 
  888.00000m  116.6926u  888.0000m 
  889.00000m  116.7120u  889.0000m 
  890.00000m  116.7315u  890.0000m 
  891.00000m  116.7510u  891.0000m 
  892.00000m  116.7705u  892.0000m 
  893.00000m  116.7899u  893.0000m 
  894.00000m  116.8094u  894.0000m 
  895.00000m  116.8289u  895.0000m 
  896.00000m  116.8483u  896.0000m 
  897.00000m  116.8677u  897.0000m 
  898.00000m  116.8872u  898.0000m 
  899.00000m  116.9066u  899.0000m 
  900.00000m  116.9260u  900.0000m 
  901.00000m  116.9454u  901.0000m 
  902.00000m  116.9648u  902.0000m 
  903.00000m  116.9842u  903.0000m 
  904.00000m  117.0036u  904.0000m 
  905.00000m  117.0229u  905.0000m 
  906.00000m  117.0423u  906.0000m 
  907.00000m  117.0617u  907.0000m 
  908.00000m  117.0810u  908.0000m 
  909.00000m  117.1004u  909.0000m 
  910.00000m  117.1197u  910.0000m 
  911.00000m  117.1391u  911.0000m 
  912.00000m  117.1584u  912.0000m 
  913.00000m  117.1777u  913.0000m 
  914.00000m  117.1970u  914.0000m 
  915.00000m  117.2163u  915.0000m 
  916.00000m  117.2356u  916.0000m 
  917.00000m  117.2549u  917.0000m 
  918.00000m  117.2742u  918.0000m 
  919.00000m  117.2935u  919.0000m 
  920.00000m  117.3127u  920.0000m 
  921.00000m  117.3320u  921.0000m 
  922.00000m  117.3513u  922.0000m 
  923.00000m  117.3705u  923.0000m 
  924.00000m  117.3897u  924.0000m 
  925.00000m  117.4090u  925.0000m 
  926.00000m  117.4282u  926.0000m 
  927.00000m  117.4474u  927.0000m 
  928.00000m  117.4666u  928.0000m 
  929.00000m  117.4859u  929.0000m 
  930.00000m  117.5051u  930.0000m 
  931.00000m  117.5243u  931.0000m 
  932.00000m  117.5434u  932.0000m 
  933.00000m  117.5626u  933.0000m 
  934.00000m  117.5818u  934.0000m 
  935.00000m  117.6010u  935.0000m 
  936.00000m  117.6201u  936.0000m 
  937.00000m  117.6393u  937.0000m 
  938.00000m  117.6584u  938.0000m 
  939.00000m  117.6776u  939.0000m 
  940.00000m  117.6967u  940.0000m 
  941.00000m  117.7158u  941.0000m 
  942.00000m  117.7349u  942.0000m 
  943.00000m  117.7541u  943.0000m 
  944.00000m  117.7732u  944.0000m 
  945.00000m  117.7923u  945.0000m 
  946.00000m  117.8114u  946.0000m 
  947.00000m  117.8305u  947.0000m 
  948.00000m  117.8495u  948.0000m 
  949.00000m  117.8686u  949.0000m 
  950.00000m  117.8877u  950.0000m 
  951.00000m  117.9067u  951.0000m 
  952.00000m  117.9258u  952.0000m 
  953.00000m  117.9448u  953.0000m 
  954.00000m  117.9639u  954.0000m 
  955.00000m  117.9829u  955.0000m 
  956.00000m  118.0020u  956.0000m 
  957.00000m  118.0210u  957.0000m 
  958.00000m  118.0400u  958.0000m 
  959.00000m  118.0590u  959.0000m 
  960.00000m  118.0780u  960.0000m 
  961.00000m  118.0970u  961.0000m 
  962.00000m  118.1160u  962.0000m 
  963.00000m  118.1350u  963.0000m 
  964.00000m  118.1540u  964.0000m 
  965.00000m  118.1729u  965.0000m 
  966.00000m  118.1919u  966.0000m 
  967.00000m  118.2109u  967.0000m 
  968.00000m  118.2298u  968.0000m 
  969.00000m  118.2488u  969.0000m 
  970.00000m  118.2677u  970.0000m 
  971.00000m  118.2867u  971.0000m 
  972.00000m  118.3056u  972.0000m 
  973.00000m  118.3245u  973.0000m 
  974.00000m  118.3434u  974.0000m 
  975.00000m  118.3623u  975.0000m 
  976.00000m  118.3813u  976.0000m 
  977.00000m  118.4002u  977.0000m 
  978.00000m  118.4190u  978.0000m 
  979.00000m  118.4379u  979.0000m 
  980.00000m  118.4568u  980.0000m 
  981.00000m  118.4757u  981.0000m 
  982.00000m  118.4946u  982.0000m 
  983.00000m  118.5134u  983.0000m 
  984.00000m  118.5323u  984.0000m 
  985.00000m  118.5511u  985.0000m 
  986.00000m  118.5700u  986.0000m 
  987.00000m  118.5888u  987.0000m 
  988.00000m  118.6077u  988.0000m 
  989.00000m  118.6265u  989.0000m 
  990.00000m  118.6453u  990.0000m 
  991.00000m  118.6641u  991.0000m 
  992.00000m  118.6829u  992.0000m 
  993.00000m  118.7017u  993.0000m 
  994.00000m  118.7205u  994.0000m 
  995.00000m  118.7393u  995.0000m 
  996.00000m  118.7581u  996.0000m 
  997.00000m  118.7769u  997.0000m 
  998.00000m  118.7957u  998.0000m 
  999.00000m  118.8145u  999.0000m 
    1.00000   118.8332u    1.0000  
    1.00100   118.8520u    1.0010  
    1.00200   118.8707u    1.0020  
    1.00300   118.8895u    1.0030  
    1.00400   118.9082u    1.0040  
    1.00500   118.9270u    1.0050  
    1.00600   118.9457u    1.0060  
    1.00700   118.9644u    1.0070  
    1.00800   118.9831u    1.0080  
    1.00900   119.0018u    1.0090  
    1.01000   119.0206u    1.0100  
    1.01100   119.0393u    1.0110  
    1.01200   119.0579u    1.0120  
    1.01300   119.0766u    1.0130  
    1.01400   119.0953u    1.0140  
    1.01500   119.1140u    1.0150  
    1.01600   119.1327u    1.0160  
    1.01700   119.1514u    1.0170  
    1.01800   119.1700u    1.0180  
    1.01900   119.1887u    1.0190  
    1.02000   119.2073u    1.0200  
    1.02100   119.2260u    1.0210  
    1.02200   119.2446u    1.0220  
    1.02300   119.2633u    1.0230  
    1.02400   119.2819u    1.0240  
    1.02500   119.3005u    1.0250  
    1.02600   119.3191u    1.0260  
    1.02700   119.3377u    1.0270  
    1.02800   119.3564u    1.0280  
    1.02900   119.3750u    1.0290  
    1.03000   119.3936u    1.0300  
    1.03100   119.4121u    1.0310  
    1.03200   119.4307u    1.0320  
    1.03300   119.4493u    1.0330  
    1.03400   119.4679u    1.0340  
    1.03500   119.4865u    1.0350  
    1.03600   119.5050u    1.0360  
    1.03700   119.5236u    1.0370  
    1.03800   119.5422u    1.0380  
    1.03900   119.5607u    1.0390  
    1.04000   119.5793u    1.0400  
    1.04100   119.5978u    1.0410  
    1.04200   119.6163u    1.0420  
    1.04300   119.6349u    1.0430  
    1.04400   119.6534u    1.0440  
    1.04500   119.6719u    1.0450  
    1.04600   119.6904u    1.0460  
    1.04700   119.7089u    1.0470  
    1.04800   119.7274u    1.0480  
    1.04900   119.7459u    1.0490  
    1.05000   119.7644u    1.0500  
    1.05100   119.7829u    1.0510  
    1.05200   119.8014u    1.0520  
    1.05300   119.8199u    1.0530  
    1.05400   119.8384u    1.0540  
    1.05500   119.8568u    1.0550  
    1.05600   119.8753u    1.0560  
    1.05700   119.8937u    1.0570  
    1.05800   119.9122u    1.0580  
    1.05900   119.9306u    1.0590  
    1.06000   119.9491u    1.0600  
    1.06100   119.9675u    1.0610  
    1.06200   119.9860u    1.0620  
    1.06300   120.0044u    1.0630  
    1.06400   120.0228u    1.0640  
    1.06500   120.0412u    1.0650  
    1.06600   120.0596u    1.0660  
    1.06700   120.0781u    1.0670  
    1.06800   120.0965u    1.0680  
    1.06900   120.1149u    1.0690  
    1.07000   120.1333u    1.0700  
    1.07100   120.1516u    1.0710  
    1.07200   120.1700u    1.0720  
    1.07300   120.1884u    1.0730  
    1.07400   120.2068u    1.0740  
    1.07500   120.2252u    1.0750  
    1.07600   120.2435u    1.0760  
    1.07700   120.2619u    1.0770  
    1.07800   120.2802u    1.0780  
    1.07900   120.2986u    1.0790  
    1.08000   120.3169u    1.0800  
    1.08100   120.3353u    1.0810  
    1.08200   120.3536u    1.0820  
    1.08300   120.3719u    1.0830  
    1.08400   120.3903u    1.0840  
    1.08500   120.4086u    1.0850  
    1.08600   120.4269u    1.0860  
    1.08700   120.4452u    1.0870  
    1.08800   120.4635u    1.0880  
    1.08900   120.4818u    1.0890  
    1.09000   120.5001u    1.0900  
    1.09100   120.5184u    1.0910  
    1.09200   120.5367u    1.0920  
    1.09300   120.5550u    1.0930  
    1.09400   120.5733u    1.0940  
    1.09500   120.5916u    1.0950  
    1.09600   120.6098u    1.0960  
    1.09700   120.6281u    1.0970  
    1.09800   120.6464u    1.0980  
    1.09900   120.6646u    1.0990  
    1.10000   120.6829u    1.1000  
    1.10100   120.7011u    1.1010  
    1.10200   120.7194u    1.1020  
    1.10300   120.7376u    1.1030  
    1.10400   120.7558u    1.1040  
    1.10500   120.7741u    1.1050  
    1.10600   120.7923u    1.1060  
    1.10700   120.8105u    1.1070  
    1.10800   120.8287u    1.1080  
    1.10900   120.8469u    1.1090  
    1.11000   120.8652u    1.1100  
    1.11100   120.8834u    1.1110  
    1.11200   120.9016u    1.1120  
    1.11300   120.9197u    1.1130  
    1.11400   120.9379u    1.1140  
    1.11500   120.9561u    1.1150  
    1.11600   120.9743u    1.1160  
    1.11700   120.9925u    1.1170  
    1.11800   121.0107u    1.1180  
    1.11900   121.0288u    1.1190  
    1.12000   121.0470u    1.1200  
    1.12100   121.0651u    1.1210  
    1.12200   121.0833u    1.1220  
    1.12300   121.1015u    1.1230  
    1.12400   121.1196u    1.1240  
    1.12500   121.1377u    1.1250  
    1.12600   121.1559u    1.1260  
    1.12700   121.1740u    1.1270  
    1.12800   121.1921u    1.1280  
    1.12900   121.2103u    1.1290  
    1.13000   121.2284u    1.1300  
    1.13100   121.2465u    1.1310  
    1.13200   121.2646u    1.1320  
    1.13300   121.2827u    1.1330  
    1.13400   121.3008u    1.1340  
    1.13500   121.3189u    1.1350  
    1.13600   121.3370u    1.1360  
    1.13700   121.3551u    1.1370  
    1.13800   121.3732u    1.1380  
    1.13900   121.3913u    1.1390  
    1.14000   121.4094u    1.1400  
    1.14100   121.4274u    1.1410  
    1.14200   121.4455u    1.1420  
    1.14300   121.4636u    1.1430  
    1.14400   121.4816u    1.1440  
    1.14500   121.4997u    1.1450  
    1.14600   121.5177u    1.1460  
    1.14700   121.5358u    1.1470  
    1.14800   121.5538u    1.1480  
    1.14900   121.5719u    1.1490  
    1.15000   121.5899u    1.1500  
    1.15100   121.6079u    1.1510  
    1.15200   121.6260u    1.1520  
    1.15300   121.6440u    1.1530  
    1.15400   121.6620u    1.1540  
    1.15500   121.6800u    1.1550  
    1.15600   121.6980u    1.1560  
    1.15700   121.7161u    1.1570  
    1.15800   121.7341u    1.1580  
    1.15900   121.7521u    1.1590  
    1.16000   121.7701u    1.1600  
    1.16100   121.7880u    1.1610  
    1.16200   121.8060u    1.1620  
    1.16300   121.8240u    1.1630  
    1.16400   121.8420u    1.1640  
    1.16500   121.8600u    1.1650  
    1.16600   121.8779u    1.1660  
    1.16700   121.8959u    1.1670  
    1.16800   121.9139u    1.1680  
    1.16900   121.9318u    1.1690  
    1.17000   121.9498u    1.1700  
    1.17100   121.9678u    1.1710  
    1.17200   121.9857u    1.1720  
    1.17300   122.0036u    1.1730  
    1.17400   122.0216u    1.1740  
    1.17500   122.0395u    1.1750  
    1.17600   122.0575u    1.1760  
    1.17700   122.0754u    1.1770  
    1.17800   122.0933u    1.1780  
    1.17900   122.1112u    1.1790  
    1.18000   122.1292u    1.1800  
    1.18100   122.1471u    1.1810  
    1.18200   122.1650u    1.1820  
    1.18300   122.1829u    1.1830  
    1.18400   122.2008u    1.1840  
    1.18500   122.2187u    1.1850  
    1.18600   122.2366u    1.1860  
    1.18700   122.2545u    1.1870  
    1.18800   122.2724u    1.1880  
    1.18900   122.2902u    1.1890  
    1.19000   122.3081u    1.1900  
    1.19100   122.3260u    1.1910  
    1.19200   122.3439u    1.1920  
    1.19300   122.3617u    1.1930  
    1.19400   122.3796u    1.1940  
    1.19500   122.3975u    1.1950  
    1.19600   122.4153u    1.1960  
    1.19700   122.4332u    1.1970  
    1.19800   122.4510u    1.1980  
    1.19900   122.4689u    1.1990  
    1.20000   122.4867u    1.2000  
    1.20100   122.5046u    1.2010  
    1.20200   122.5224u    1.2020  
    1.20300   122.5402u    1.2030  
    1.20400   122.5581u    1.2040  
    1.20500   122.5759u    1.2050  
    1.20600   122.5937u    1.2060  
    1.20700   122.6115u    1.2070  
    1.20800   122.6293u    1.2080  
    1.20900   122.6471u    1.2090  
    1.21000   122.6649u    1.2100  
    1.21100   122.6827u    1.2110  
    1.21200   122.7005u    1.2120  
    1.21300   122.7183u    1.2130  
    1.21400   122.7361u    1.2140  
    1.21500   122.7539u    1.2150  
    1.21600   122.7717u    1.2160  
    1.21700   122.7895u    1.2170  
    1.21800   122.8073u    1.2180  
    1.21900   122.8250u    1.2190  
    1.22000   122.8428u    1.2200  
    1.22100   122.8606u    1.2210  
    1.22200   122.8783u    1.2220  
    1.22300   122.8961u    1.2230  
    1.22400   122.9139u    1.2240  
    1.22500   122.9316u    1.2250  
    1.22600   122.9494u    1.2260  
    1.22700   122.9671u    1.2270  
    1.22800   122.9849u    1.2280  
    1.22900   123.0026u    1.2290  
    1.23000   123.0203u    1.2300  
    1.23100   123.0381u    1.2310  
    1.23200   123.0558u    1.2320  
    1.23300   123.0735u    1.2330  
    1.23400   123.0912u    1.2340  
    1.23500   123.1090u    1.2350  
    1.23600   123.1267u    1.2360  
    1.23700   123.1444u    1.2370  
    1.23800   123.1621u    1.2380  
    1.23900   123.1798u    1.2390  
    1.24000   123.1975u    1.2400  
    1.24100   123.2152u    1.2410  
    1.24200   123.2329u    1.2420  
    1.24300   123.2506u    1.2430  
    1.24400   123.2683u    1.2440  
    1.24500   123.2860u    1.2450  
    1.24600   123.3036u    1.2460  
    1.24700   123.3213u    1.2470  
    1.24800   123.3390u    1.2480  
    1.24900   123.3567u    1.2490  
    1.25000   123.3743u    1.2500  
    1.25100   123.3920u    1.2510  
    1.25200   123.4097u    1.2520  
    1.25300   123.4273u    1.2530  
    1.25400   123.4450u    1.2540  
    1.25500   123.4626u    1.2550  
    1.25600   123.4803u    1.2560  
    1.25700   123.4979u    1.2570  
    1.25800   123.5156u    1.2580  
    1.25900   123.5332u    1.2590  
    1.26000   123.5508u    1.2600  
    1.26100   123.5685u    1.2610  
    1.26200   123.5861u    1.2620  
    1.26300   123.6037u    1.2630  
    1.26400   123.6213u    1.2640  
    1.26500   123.6390u    1.2650  
    1.26600   123.6566u    1.2660  
    1.26700   123.6742u    1.2670  
    1.26800   123.6918u    1.2680  
    1.26900   123.7094u    1.2690  
    1.27000   123.7270u    1.2700  
    1.27100   123.7446u    1.2710  
    1.27200   123.7622u    1.2720  
    1.27300   123.7798u    1.2730  
    1.27400   123.7974u    1.2740  
    1.27500   123.8150u    1.2750  
    1.27600   123.8326u    1.2760  
    1.27700   123.8501u    1.2770  
    1.27800   123.8677u    1.2780  
    1.27900   123.8853u    1.2790  
    1.28000   123.9029u    1.2800  
    1.28100   123.9204u    1.2810  
    1.28200   123.9380u    1.2820  
    1.28300   123.9556u    1.2830  
    1.28400   123.9731u    1.2840  
    1.28500   123.9907u    1.2850  
    1.28600   124.0082u    1.2860  
    1.28700   124.0258u    1.2870  
    1.28800   124.0433u    1.2880  
    1.28900   124.0609u    1.2890  
    1.29000   124.0784u    1.2900  
    1.29100   124.0960u    1.2910  
    1.29200   124.1135u    1.2920  
    1.29300   124.1310u    1.2930  
    1.29400   124.1486u    1.2940  
    1.29500   124.1661u    1.2950  
    1.29600   124.1836u    1.2960  
    1.29700   124.2011u    1.2970  
    1.29800   124.2186u    1.2980  
    1.29900   124.2362u    1.2990  
    1.30000   124.2537u    1.3000  
    1.30100   124.2712u    1.3010  
    1.30200   124.2887u    1.3020  
    1.30300   124.3062u    1.3030  
    1.30400   124.3237u    1.3040  
    1.30500   124.3412u    1.3050  
    1.30600   124.3587u    1.3060  
    1.30700   124.3762u    1.3070  
    1.30800   124.3936u    1.3080  
    1.30900   124.4111u    1.3090  
    1.31000   124.4286u    1.3100  
    1.31100   124.4461u    1.3110  
    1.31200   124.4636u    1.3120  
    1.31300   124.4810u    1.3130  
    1.31400   124.4985u    1.3140  
    1.31500   124.5160u    1.3150  
    1.31600   124.5334u    1.3160  
    1.31700   124.5509u    1.3170  
    1.31800   124.5684u    1.3180  
    1.31900   124.5858u    1.3190  
    1.32000   124.6033u    1.3200  
    1.32100   124.6207u    1.3210  
    1.32200   124.6382u    1.3220  
    1.32300   124.6556u    1.3230  
    1.32400   124.6730u    1.3240  
    1.32500   124.6905u    1.3250  
    1.32600   124.7079u    1.3260  
    1.32700   124.7253u    1.3270  
    1.32800   124.7428u    1.3280  
    1.32900   124.7602u    1.3290  
    1.33000   124.7776u    1.3300  
    1.33100   124.7950u    1.3310  
    1.33200   124.8125u    1.3320  
    1.33300   124.8299u    1.3330  
    1.33400   124.8473u    1.3340  
    1.33500   124.8647u    1.3350  
    1.33600   124.8821u    1.3360  
    1.33700   124.8995u    1.3370  
    1.33800   124.9169u    1.3380  
    1.33900   124.9343u    1.3390  
    1.34000   124.9517u    1.3400  
    1.34100   124.9691u    1.3410  
    1.34200   124.9865u    1.3420  
    1.34300   125.0039u    1.3430  
    1.34400   125.0213u    1.3440  
    1.34500   125.0387u    1.3450  
    1.34600   125.0560u    1.3460  
    1.34700   125.0734u    1.3470  
    1.34800   125.0908u    1.3480  
    1.34900   125.1082u    1.3490  
    1.35000   125.1255u    1.3500  
    1.35100   125.1429u    1.3510  
    1.35200   125.1603u    1.3520  
    1.35300   125.1776u    1.3530  
    1.35400   125.1950u    1.3540  
    1.35500   125.2123u    1.3550  
    1.35600   125.2297u    1.3560  
    1.35700   125.2470u    1.3570  
    1.35800   125.2644u    1.3580  
    1.35900   125.2817u    1.3590  
    1.36000   125.2991u    1.3600  
    1.36100   125.3164u    1.3610  
    1.36200   125.3337u    1.3620  
    1.36300   125.3511u    1.3630  
    1.36400   125.3684u    1.3640  
    1.36500   125.3857u    1.3650  
    1.36600   125.4031u    1.3660  
    1.36700   125.4204u    1.3670  
    1.36800   125.4377u    1.3680  
    1.36900   125.4550u    1.3690  
    1.37000   125.4723u    1.3700  
    1.37100   125.4897u    1.3710  
    1.37200   125.5070u    1.3720  
    1.37300   125.5243u    1.3730  
    1.37400   125.5416u    1.3740  
    1.37500   125.5589u    1.3750  
    1.37600   125.5762u    1.3760  
    1.37700   125.5935u    1.3770  
    1.37800   125.6108u    1.3780  
    1.37900   125.6281u    1.3790  
    1.38000   125.6454u    1.3800  
    1.38100   125.6627u    1.3810  
    1.38200   125.6799u    1.3820  
    1.38300   125.6972u    1.3830  
    1.38400   125.7145u    1.3840  
    1.38500   125.7318u    1.3850  
    1.38600   125.7491u    1.3860  
    1.38700   125.7663u    1.3870  
    1.38800   125.7836u    1.3880  
    1.38900   125.8009u    1.3890  
    1.39000   125.8181u    1.3900  
    1.39100   125.8354u    1.3910  
    1.39200   125.8527u    1.3920  
    1.39300   125.8699u    1.3930  
    1.39400   125.8872u    1.3940  
    1.39500   125.9044u    1.3950  
    1.39600   125.9217u    1.3960  
    1.39700   125.9389u    1.3970  
    1.39800   125.9562u    1.3980  
    1.39900   125.9734u    1.3990  
    1.40000   125.9906u    1.4000  
    1.40100   126.0079u    1.4010  
    1.40200   126.0251u    1.4020  
    1.40300   126.0424u    1.4030  
    1.40400   126.0596u    1.4040  
    1.40500   126.0768u    1.4050  
    1.40600   126.0940u    1.4060  
    1.40700   126.1113u    1.4070  
    1.40800   126.1285u    1.4080  
    1.40900   126.1457u    1.4090  
    1.41000   126.1629u    1.4100  
    1.41100   126.1801u    1.4110  
    1.41200   126.1973u    1.4120  
    1.41300   126.2146u    1.4130  
    1.41400   126.2318u    1.4140  
    1.41500   126.2490u    1.4150  
    1.41600   126.2662u    1.4160  
    1.41700   126.2834u    1.4170  
    1.41800   126.3006u    1.4180  
    1.41900   126.3178u    1.4190  
    1.42000   126.3350u    1.4200  
    1.42100   126.3521u    1.4210  
    1.42200   126.3693u    1.4220  
    1.42300   126.3865u    1.4230  
    1.42400   126.4037u    1.4240  
    1.42500   126.4209u    1.4250  
    1.42600   126.4381u    1.4260  
    1.42700   126.4552u    1.4270  
    1.42800   126.4724u    1.4280  
    1.42900   126.4896u    1.4290  
    1.43000   126.5068u    1.4300  
    1.43100   126.5239u    1.4310  
    1.43200   126.5411u    1.4320  
    1.43300   126.5583u    1.4330  
    1.43400   126.5754u    1.4340  
    1.43500   126.5926u    1.4350  
    1.43600   126.6097u    1.4360  
    1.43700   126.6269u    1.4370  
    1.43800   126.6440u    1.4380  
    1.43900   126.6612u    1.4390  
    1.44000   126.6783u    1.4400  
    1.44100   126.6955u    1.4410  
    1.44200   126.7126u    1.4420  
    1.44300   126.7298u    1.4430  
    1.44400   126.7469u    1.4440  
    1.44500   126.7640u    1.4450  
    1.44600   126.7812u    1.4460  
    1.44700   126.7983u    1.4470  
    1.44800   126.8154u    1.4480  
    1.44900   126.8326u    1.4490  
    1.45000   126.8497u    1.4500  
    1.45100   126.8668u    1.4510  
    1.45200   126.8839u    1.4520  
    1.45300   126.9010u    1.4530  
    1.45400   126.9182u    1.4540  
    1.45500   126.9353u    1.4550  
    1.45600   126.9524u    1.4560  
    1.45700   126.9695u    1.4570  
    1.45800   126.9866u    1.4580  
    1.45900   127.0037u    1.4590  
    1.46000   127.0208u    1.4600  
    1.46100   127.0379u    1.4610  
    1.46200   127.0550u    1.4620  
    1.46300   127.0721u    1.4630  
    1.46400   127.0892u    1.4640  
    1.46500   127.1063u    1.4650  
    1.46600   127.1234u    1.4660  
    1.46700   127.1405u    1.4670  
    1.46800   127.1576u    1.4680  
    1.46900   127.1746u    1.4690  
    1.47000   127.1917u    1.4700  
    1.47100   127.2088u    1.4710  
    1.47200   127.2259u    1.4720  
    1.47300   127.2430u    1.4730  
    1.47400   127.2600u    1.4740  
    1.47500   127.2771u    1.4750  
    1.47600   127.2942u    1.4760  
    1.47700   127.3112u    1.4770  
    1.47800   127.3283u    1.4780  
    1.47900   127.3454u    1.4790  
    1.48000   127.3624u    1.4800  
    1.48100   127.3795u    1.4810  
    1.48200   127.3965u    1.4820  
    1.48300   127.4136u    1.4830  
    1.48400   127.4307u    1.4840  
    1.48500   127.4477u    1.4850  
    1.48600   127.4648u    1.4860  
    1.48700   127.4818u    1.4870  
    1.48800   127.4988u    1.4880  
    1.48900   127.5159u    1.4890  
    1.49000   127.5329u    1.4900  
    1.49100   127.5500u    1.4910  
    1.49200   127.5670u    1.4920  
    1.49300   127.5840u    1.4930  
    1.49400   127.6011u    1.4940  
    1.49500   127.6181u    1.4950  
    1.49600   127.6351u    1.4960  
    1.49700   127.6522u    1.4970  
    1.49800   127.6692u    1.4980  
    1.49900   127.6862u    1.4990  
    1.50000   127.7032u    1.5000  
    1.50100   127.7202u    1.5010  
    1.50200   127.7373u    1.5020  
    1.50300   127.7543u    1.5030  
    1.50400   127.7713u    1.5040  
    1.50500   127.7883u    1.5050  
    1.50600   127.8053u    1.5060  
    1.50700   127.8223u    1.5070  
    1.50800   127.8393u    1.5080  
    1.50900   127.8563u    1.5090  
    1.51000   127.8733u    1.5100  
    1.51100   127.8903u    1.5110  
    1.51200   127.9073u    1.5120  
    1.51300   127.9243u    1.5130  
    1.51400   127.9413u    1.5140  
    1.51500   127.9583u    1.5150  
    1.51600   127.9753u    1.5160  
    1.51700   127.9923u    1.5170  
    1.51800   128.0093u    1.5180  
    1.51900   128.0262u    1.5190  
    1.52000   128.0432u    1.5200  
    1.52100   128.0602u    1.5210  
    1.52200   128.0772u    1.5220  
    1.52300   128.0942u    1.5230  
    1.52400   128.1111u    1.5240  
    1.52500   128.1281u    1.5250  
    1.52600   128.1451u    1.5260  
    1.52700   128.1620u    1.5270  
    1.52800   128.1790u    1.5280  
    1.52900   128.1960u    1.5290  
    1.53000   128.2129u    1.5300  
    1.53100   128.2299u    1.5310  
    1.53200   128.2469u    1.5320  
    1.53300   128.2638u    1.5330  
    1.53400   128.2808u    1.5340  
    1.53500   128.2977u    1.5350  
    1.53600   128.3147u    1.5360  
    1.53700   128.3316u    1.5370  
    1.53800   128.3486u    1.5380  
    1.53900   128.3655u    1.5390  
    1.54000   128.3825u    1.5400  
    1.54100   128.3994u    1.5410  
    1.54200   128.4163u    1.5420  
    1.54300   128.4333u    1.5430  
    1.54400   128.4502u    1.5440  
    1.54500   128.4672u    1.5450  
    1.54600   128.4841u    1.5460  
    1.54700   128.5010u    1.5470  
    1.54800   128.5180u    1.5480  
    1.54900   128.5349u    1.5490  
    1.55000   128.5518u    1.5500  
    1.55100   128.5687u    1.5510  
    1.55200   128.5857u    1.5520  
    1.55300   128.6026u    1.5530  
    1.55400   128.6195u    1.5540  
    1.55500   128.6364u    1.5550  
    1.55600   128.6533u    1.5560  
    1.55700   128.6702u    1.5570  
    1.55800   128.6872u    1.5580  
    1.55900   128.7041u    1.5590  
    1.56000   128.7210u    1.5600  
    1.56100   128.7379u    1.5610  
    1.56200   128.7548u    1.5620  
    1.56300   128.7717u    1.5630  
    1.56400   128.7886u    1.5640  
    1.56500   128.8055u    1.5650  
    1.56600   128.8224u    1.5660  
    1.56700   128.8393u    1.5670  
    1.56800   128.8562u    1.5680  
    1.56900   128.8731u    1.5690  
    1.57000   128.8900u    1.5700  
    1.57100   128.9069u    1.5710  
    1.57200   128.9237u    1.5720  
    1.57300   128.9406u    1.5730  
    1.57400   128.9575u    1.5740  
    1.57500   128.9744u    1.5750  
    1.57600   128.9913u    1.5760  
    1.57700   129.0082u    1.5770  
    1.57800   129.0250u    1.5780  
    1.57900   129.0419u    1.5790  
    1.58000   129.0588u    1.5800  
    1.58100   129.0757u    1.5810  
    1.58200   129.0925u    1.5820  
    1.58300   129.1094u    1.5830  
    1.58400   129.1263u    1.5840  
    1.58500   129.1431u    1.5850  
    1.58600   129.1600u    1.5860  
    1.58700   129.1769u    1.5870  
    1.58800   129.1937u    1.5880  
    1.58900   129.2106u    1.5890  
    1.59000   129.2274u    1.5900  
    1.59100   129.2443u    1.5910  
    1.59200   129.2611u    1.5920  
    1.59300   129.2780u    1.5930  
    1.59400   129.2948u    1.5940  
    1.59500   129.3117u    1.5950  
    1.59600   129.3285u    1.5960  
    1.59700   129.3454u    1.5970  
    1.59800   129.3622u    1.5980  
    1.59900   129.3791u    1.5990  
    1.60000   129.3959u    1.6000  
    1.60100   129.4128u    1.6010  
    1.60200   129.4296u    1.6020  
    1.60300   129.4464u    1.6030  
    1.60400   129.4633u    1.6040  
    1.60500   129.4801u    1.6050  
    1.60600   129.4969u    1.6060  
    1.60700   129.5138u    1.6070  
    1.60800   129.5306u    1.6080  
    1.60900   129.5474u    1.6090  
    1.61000   129.5642u    1.6100  
    1.61100   129.5811u    1.6110  
    1.61200   129.5979u    1.6120  
    1.61300   129.6147u    1.6130  
    1.61400   129.6315u    1.6140  
    1.61500   129.6484u    1.6150  
    1.61600   129.6652u    1.6160  
    1.61700   129.6820u    1.6170  
    1.61800   129.6988u    1.6180  
    1.61900   129.7156u    1.6190  
    1.62000   129.7324u    1.6200  
    1.62100   129.7492u    1.6210  
    1.62200   129.7660u    1.6220  
    1.62300   129.7828u    1.6230  
    1.62400   129.7996u    1.6240  
    1.62500   129.8164u    1.6250  
    1.62600   129.8332u    1.6260  
    1.62700   129.8500u    1.6270  
    1.62800   129.8668u    1.6280  
    1.62900   129.8836u    1.6290  
    1.63000   129.9004u    1.6300  
    1.63100   129.9172u    1.6310  
    1.63200   129.9340u    1.6320  
    1.63300   129.9508u    1.6330  
    1.63400   129.9676u    1.6340  
    1.63500   129.9844u    1.6350  
    1.63600   130.0012u    1.6360  
    1.63700   130.0180u    1.6370  
    1.63800   130.0347u    1.6380  
    1.63900   130.0515u    1.6390  
    1.64000   130.0683u    1.6400  
    1.64100   130.0851u    1.6410  
    1.64200   130.1019u    1.6420  
    1.64300   130.1186u    1.6430  
    1.64400   130.1354u    1.6440  
    1.64500   130.1522u    1.6450  
    1.64600   130.1689u    1.6460  
    1.64700   130.1857u    1.6470  
    1.64800   130.2025u    1.6480  
    1.64900   130.2192u    1.6490  
    1.65000   130.2360u    1.6500  
    1.65100   130.2528u    1.6510  
    1.65200   130.2695u    1.6520  
    1.65300   130.2863u    1.6530  
    1.65400   130.3031u    1.6540  
    1.65500   130.3198u    1.6550  
    1.65600   130.3366u    1.6560  
    1.65700   130.3533u    1.6570  
    1.65800   130.3701u    1.6580  
    1.65900   130.3868u    1.6590  
    1.66000   130.4036u    1.6600  
    1.66100   130.4203u    1.6610  
    1.66200   130.4371u    1.6620  
    1.66300   130.4538u    1.6630  
    1.66400   130.4706u    1.6640  
    1.66500   130.4873u    1.6650  
    1.66600   130.5041u    1.6660  
    1.66700   130.5208u    1.6670  
    1.66800   130.5375u    1.6680  
    1.66900   130.5543u    1.6690  
    1.67000   130.5710u    1.6700  
    1.67100   130.5878u    1.6710  
    1.67200   130.6045u    1.6720  
    1.67300   130.6212u    1.6730  
    1.67400   130.6379u    1.6740  
    1.67500   130.6547u    1.6750  
    1.67600   130.6714u    1.6760  
    1.67700   130.6881u    1.6770  
    1.67800   130.7049u    1.6780  
    1.67900   130.7216u    1.6790  
    1.68000   130.7383u    1.6800  
    1.68100   130.7550u    1.6810  
    1.68200   130.7718u    1.6820  
    1.68300   130.7885u    1.6830  
    1.68400   130.8052u    1.6840  
    1.68500   130.8219u    1.6850  
    1.68600   130.8386u    1.6860  
    1.68700   130.8553u    1.6870  
    1.68800   130.8720u    1.6880  
    1.68900   130.8888u    1.6890  
    1.69000   130.9055u    1.6900  
    1.69100   130.9222u    1.6910  
    1.69200   130.9389u    1.6920  
    1.69300   130.9556u    1.6930  
    1.69400   130.9723u    1.6940  
    1.69500   130.9890u    1.6950  
    1.69600   131.0057u    1.6960  
    1.69700   131.0224u    1.6970  
    1.69800   131.0391u    1.6980  
    1.69900   131.0558u    1.6990  
    1.70000   131.0725u    1.7000  
    1.70100   131.0892u    1.7010  
    1.70200   131.1059u    1.7020  
    1.70300   131.1226u    1.7030  
    1.70400   131.1393u    1.7040  
    1.70500   131.1560u    1.7050  
    1.70600   131.1726u    1.7060  
    1.70700   131.1893u    1.7070  
    1.70800   131.2060u    1.7080  
    1.70900   131.2227u    1.7090  
    1.71000   131.2394u    1.7100  
    1.71100   131.2561u    1.7110  
    1.71200   131.2728u    1.7120  
    1.71300   131.2894u    1.7130  
    1.71400   131.3061u    1.7140  
    1.71500   131.3228u    1.7150  
    1.71600   131.3395u    1.7160  
    1.71700   131.3561u    1.7170  
    1.71800   131.3728u    1.7180  
    1.71900   131.3895u    1.7190  
    1.72000   131.4062u    1.7200  
    1.72100   131.4228u    1.7210  
    1.72200   131.4395u    1.7220  
    1.72300   131.4562u    1.7230  
    1.72400   131.4728u    1.7240  
    1.72500   131.4895u    1.7250  
    1.72600   131.5062u    1.7260  
    1.72700   131.5228u    1.7270  
    1.72800   131.5395u    1.7280  
    1.72900   131.5561u    1.7290  
    1.73000   131.5728u    1.7300  
    1.73100   131.5895u    1.7310  
    1.73200   131.6061u    1.7320  
    1.73300   131.6228u    1.7330  
    1.73400   131.6394u    1.7340  
    1.73500   131.6561u    1.7350  
    1.73600   131.6727u    1.7360  
    1.73700   131.6894u    1.7370  
    1.73800   131.7060u    1.7380  
    1.73900   131.7227u    1.7390  
    1.74000   131.7393u    1.7400  
    1.74100   131.7560u    1.7410  
    1.74200   131.7726u    1.7420  
    1.74300   131.7893u    1.7430  
    1.74400   131.8059u    1.7440  
    1.74500   131.8226u    1.7450  
    1.74600   131.8392u    1.7460  
    1.74700   131.8558u    1.7470  
    1.74800   131.8725u    1.7480  
    1.74900   131.8891u    1.7490  
    1.75000   131.9057u    1.7500  
    1.75100   131.9224u    1.7510  
    1.75200   131.9390u    1.7520  
    1.75300   131.9556u    1.7530  
    1.75400   131.9723u    1.7540  
    1.75500   131.9889u    1.7550  
    1.75600   132.0055u    1.7560  
    1.75700   132.0222u    1.7570  
    1.75800   132.0388u    1.7580  
    1.75900   132.0554u    1.7590  
    1.76000   132.0720u    1.7600  
    1.76100   132.0887u    1.7610  
    1.76200   132.1053u    1.7620  
    1.76300   132.1219u    1.7630  
    1.76400   132.1385u    1.7640  
    1.76500   132.1551u    1.7650  
    1.76600   132.1718u    1.7660  
    1.76700   132.1884u    1.7670  
    1.76800   132.2050u    1.7680  
    1.76900   132.2216u    1.7690  
    1.77000   132.2382u    1.7700  
    1.77100   132.2548u    1.7710  
    1.77200   132.2714u    1.7720  
    1.77300   132.2881u    1.7730  
    1.77400   132.3047u    1.7740  
    1.77500   132.3213u    1.7750  
    1.77600   132.3379u    1.7760  
    1.77700   132.3545u    1.7770  
    1.77800   132.3711u    1.7780  
    1.77900   132.3877u    1.7790  
    1.78000   132.4043u    1.7800  
    1.78100   132.4209u    1.7810  
    1.78200   132.4375u    1.7820  
    1.78300   132.4541u    1.7830  
    1.78400   132.4707u    1.7840  
    1.78500   132.4873u    1.7850  
    1.78600   132.5039u    1.7860  
    1.78700   132.5205u    1.7870  
    1.78800   132.5371u    1.7880  
    1.78900   132.5537u    1.7890  
    1.79000   132.5703u    1.7900  
    1.79100   132.5868u    1.7910  
    1.79200   132.6034u    1.7920  
    1.79300   132.6200u    1.7930  
    1.79400   132.6366u    1.7940  
    1.79500   132.6532u    1.7950  
    1.79600   132.6698u    1.7960  
    1.79700   132.6864u    1.7970  
    1.79800   132.7030u    1.7980  
    1.79900   132.7195u    1.7990  
    1.80000   132.7361u    1.8000  
    1.80100   132.7527u    1.8010  
    1.80200   132.7693u    1.8020  
    1.80300   132.7859u    1.8030  
    1.80400   132.8024u    1.8040  
    1.80500   132.8190u    1.8050  
    1.80600   132.8356u    1.8060  
    1.80700   132.8522u    1.8070  
    1.80800   132.8687u    1.8080  
    1.80900   132.8853u    1.8090  
    1.81000   132.9019u    1.8100  
    1.81100   132.9184u    1.8110  
    1.81200   132.9350u    1.8120  
    1.81300   132.9516u    1.8130  
    1.81400   132.9681u    1.8140  
    1.81500   132.9847u    1.8150  
    1.81600   133.0013u    1.8160  
    1.81700   133.0178u    1.8170  
    1.81800   133.0344u    1.8180  
    1.81900   133.0510u    1.8190  
    1.82000   133.0675u    1.8200  
    1.82100   133.0841u    1.8210  
    1.82200   133.1006u    1.8220  
    1.82300   133.1172u    1.8230  
    1.82400   133.1338u    1.8240  
    1.82500   133.1503u    1.8250  
    1.82600   133.1669u    1.8260  
    1.82700   133.1834u    1.8270  
    1.82800   133.2000u    1.8280  
    1.82900   133.2165u    1.8290  
    1.83000   133.2331u    1.8300  
    1.83100   133.2496u    1.8310  
    1.83200   133.2662u    1.8320  
    1.83300   133.2827u    1.8330  
    1.83400   133.2993u    1.8340  
    1.83500   133.3158u    1.8350  
    1.83600   133.3324u    1.8360  
    1.83700   133.3489u    1.8370  
    1.83800   133.3655u    1.8380  
    1.83900   133.3820u    1.8390  
    1.84000   133.3986u    1.8400  
    1.84100   133.4151u    1.8410  
    1.84200   133.4316u    1.8420  
    1.84300   133.4482u    1.8430  
    1.84400   133.4647u    1.8440  
    1.84500   133.4813u    1.8450  
    1.84600   133.4978u    1.8460  
    1.84700   133.5143u    1.8470  
    1.84800   133.5309u    1.8480  
    1.84900   133.5474u    1.8490  
    1.85000   133.5639u    1.8500  
    1.85100   133.5805u    1.8510  
    1.85200   133.5970u    1.8520  
    1.85300   133.6135u    1.8530  
    1.85400   133.6301u    1.8540  
    1.85500   133.6466u    1.8550  
    1.85600   133.6631u    1.8560  
    1.85700   133.6796u    1.8570  
    1.85800   133.6962u    1.8580  
    1.85900   133.7127u    1.8590  
    1.86000   133.7292u    1.8600  
    1.86100   133.7457u    1.8610  
    1.86200   133.7623u    1.8620  
    1.86300   133.7788u    1.8630  
    1.86400   133.7953u    1.8640  
    1.86500   133.8118u    1.8650  
    1.86600   133.8283u    1.8660  
    1.86700   133.8449u    1.8670  
    1.86800   133.8614u    1.8680  
    1.86900   133.8779u    1.8690  
    1.87000   133.8944u    1.8700  
    1.87100   133.9109u    1.8710  
    1.87200   133.9274u    1.8720  
    1.87300   133.9439u    1.8730  
    1.87400   133.9605u    1.8740  
    1.87500   133.9770u    1.8750  
    1.87600   133.9935u    1.8760  
    1.87700   134.0100u    1.8770  
    1.87800   134.0265u    1.8780  
    1.87900   134.0430u    1.8790  
    1.88000   134.0595u    1.8800  
    1.88100   134.0760u    1.8810  
    1.88200   134.0925u    1.8820  
    1.88300   134.1090u    1.8830  
    1.88400   134.1255u    1.8840  
    1.88500   134.1420u    1.8850  
    1.88600   134.1585u    1.8860  
    1.88700   134.1750u    1.8870  
    1.88800   134.1915u    1.8880  
    1.88900   134.2080u    1.8890  
    1.89000   134.2245u    1.8900  
    1.89100   134.2410u    1.8910  
    1.89200   134.2575u    1.8920  
    1.89300   134.2740u    1.8930  
    1.89400   134.2905u    1.8940  
    1.89500   134.3070u    1.8950  
    1.89600   134.3235u    1.8960  
    1.89700   134.3400u    1.8970  
    1.89800   134.3565u    1.8980  
    1.89900   134.3730u    1.8990  
    1.90000   134.3895u    1.9000  
    1.90100   134.4060u    1.9010  
    1.90200   134.4225u    1.9020  
    1.90300   134.4390u    1.9030  
    1.90400   134.4554u    1.9040  
    1.90500   134.4719u    1.9050  
    1.90600   134.4884u    1.9060  
    1.90700   134.5049u    1.9070  
    1.90800   134.5214u    1.9080  
    1.90900   134.5379u    1.9090  
    1.91000   134.5544u    1.9100  
    1.91100   134.5708u    1.9110  
    1.91200   134.5873u    1.9120  
    1.91300   134.6038u    1.9130  
    1.91400   134.6203u    1.9140  
    1.91500   134.6368u    1.9150  
    1.91600   134.6532u    1.9160  
    1.91700   134.6697u    1.9170  
    1.91800   134.6862u    1.9180  
    1.91900   134.7027u    1.9190  
    1.92000   134.7191u    1.9200  
    1.92100   134.7356u    1.9210  
    1.92200   134.7521u    1.9220  
    1.92300   134.7686u    1.9230  
    1.92400   134.7850u    1.9240  
    1.92500   134.8015u    1.9250  
    1.92600   134.8180u    1.9260  
    1.92700   134.8345u    1.9270  
    1.92800   134.8509u    1.9280  
    1.92900   134.8674u    1.9290  
    1.93000   134.8839u    1.9300  
    1.93100   134.9003u    1.9310  
    1.93200   134.9168u    1.9320  
    1.93300   134.9333u    1.9330  
    1.93400   134.9497u    1.9340  
    1.93500   134.9662u    1.9350  
    1.93600   134.9827u    1.9360  
    1.93700   134.9991u    1.9370  
    1.93800   135.0156u    1.9380  
    1.93900   135.0320u    1.9390  
    1.94000   135.0485u    1.9400  
    1.94100   135.0650u    1.9410  
    1.94200   135.0814u    1.9420  
    1.94300   135.0979u    1.9430  
    1.94400   135.1143u    1.9440  
    1.94500   135.1308u    1.9450  
    1.94600   135.1473u    1.9460  
    1.94700   135.1637u    1.9470  
    1.94800   135.1802u    1.9480  
    1.94900   135.1966u    1.9490  
    1.95000   135.2131u    1.9500  
    1.95100   135.2295u    1.9510  
    1.95200   135.2460u    1.9520  
    1.95300   135.2624u    1.9530  
    1.95400   135.2789u    1.9540  
    1.95500   135.2953u    1.9550  
    1.95600   135.3118u    1.9560  
    1.95700   135.3282u    1.9570  
    1.95800   135.3447u    1.9580  
    1.95900   135.3611u    1.9590  
    1.96000   135.3776u    1.9600  
    1.96100   135.3940u    1.9610  
    1.96200   135.4105u    1.9620  
    1.96300   135.4269u    1.9630  
    1.96400   135.4434u    1.9640  
    1.96500   135.4598u    1.9650  
    1.96600   135.4763u    1.9660  
    1.96700   135.4927u    1.9670  
    1.96800   135.5091u    1.9680  
    1.96900   135.5256u    1.9690  
    1.97000   135.5420u    1.9700  
    1.97100   135.5585u    1.9710  
    1.97200   135.5749u    1.9720  
    1.97300   135.5913u    1.9730  
    1.97400   135.6078u    1.9740  
    1.97500   135.6242u    1.9750  
    1.97600   135.6407u    1.9760  
    1.97700   135.6571u    1.9770  
    1.97800   135.6735u    1.9780  
    1.97900   135.6900u    1.9790  
    1.98000   135.7064u    1.9800  
    1.98100   135.7228u    1.9810  
    1.98200   135.7393u    1.9820  
    1.98300   135.7557u    1.9830  
    1.98400   135.7721u    1.9840  
    1.98500   135.7886u    1.9850  
    1.98600   135.8050u    1.9860  
    1.98700   135.8214u    1.9870  
    1.98800   135.8379u    1.9880  
    1.98900   135.8543u    1.9890  
    1.99000   135.8707u    1.9900  
    1.99100   135.8871u    1.9910  
    1.99200   135.9036u    1.9920  
    1.99300   135.9200u    1.9930  
    1.99400   135.9364u    1.9940  
    1.99500   135.9528u    1.9950  
    1.99600   135.9693u    1.9960  
    1.99700   135.9857u    1.9970  
    1.99800   136.0021u    1.9980  
    1.99900   136.0185u    1.9990  
    2.00000   136.0350u    2.0000  
    2.00100   136.0514u    2.0010  
    2.00200   136.0678u    2.0020  
    2.00300   136.0842u    2.0030  
    2.00400   136.1007u    2.0040  
    2.00500   136.1171u    2.0050  
    2.00600   136.1335u    2.0060  
    2.00700   136.1499u    2.0070  
    2.00800   136.1663u    2.0080  
    2.00900   136.1827u    2.0090  
    2.01000   136.1992u    2.0100  
    2.01100   136.2156u    2.0110  
    2.01200   136.2320u    2.0120  
    2.01300   136.2484u    2.0130  
    2.01400   136.2648u    2.0140  
    2.01500   136.2812u    2.0150  
    2.01600   136.2977u    2.0160  
    2.01700   136.3141u    2.0170  
    2.01800   136.3305u    2.0180  
    2.01900   136.3469u    2.0190  
    2.02000   136.3633u    2.0200  
    2.02100   136.3797u    2.0210  
    2.02200   136.3961u    2.0220  
    2.02300   136.4125u    2.0230  
    2.02400   136.4289u    2.0240  
    2.02500   136.4453u    2.0250  
    2.02600   136.4618u    2.0260  
    2.02700   136.4782u    2.0270  
    2.02800   136.4946u    2.0280  
    2.02900   136.5110u    2.0290  
    2.03000   136.5274u    2.0300  
    2.03100   136.5438u    2.0310  
    2.03200   136.5602u    2.0320  
    2.03300   136.5766u    2.0330  
    2.03400   136.5930u    2.0340  
    2.03500   136.6094u    2.0350  
    2.03600   136.6258u    2.0360  
    2.03700   136.6422u    2.0370  
    2.03800   136.6586u    2.0380  
    2.03900   136.6750u    2.0390  
    2.04000   136.6914u    2.0400  
    2.04100   136.7078u    2.0410  
    2.04200   136.7242u    2.0420  
    2.04300   136.7406u    2.0430  
    2.04400   136.7570u    2.0440  
    2.04500   136.7734u    2.0450  
    2.04600   136.7898u    2.0460  
    2.04700   136.8062u    2.0470  
    2.04800   136.8226u    2.0480  
    2.04900   136.8390u    2.0490  
    2.05000   136.8554u    2.0500  
    2.05100   136.8718u    2.0510  
    2.05200   136.8882u    2.0520  
    2.05300   136.9046u    2.0530  
    2.05400   136.9210u    2.0540  
    2.05500   136.9374u    2.0550  
    2.05600   136.9538u    2.0560  
    2.05700   136.9702u    2.0570  
    2.05800   136.9865u    2.0580  
    2.05900   137.0029u    2.0590  
    2.06000   137.0193u    2.0600  
    2.06100   137.0357u    2.0610  
    2.06200   137.0521u    2.0620  
    2.06300   137.0685u    2.0630  
    2.06400   137.0849u    2.0640  
    2.06500   137.1013u    2.0650  
    2.06600   137.1177u    2.0660  
    2.06700   137.1340u    2.0670  
    2.06800   137.1504u    2.0680  
    2.06900   137.1668u    2.0690  
    2.07000   137.1832u    2.0700  
    2.07100   137.1996u    2.0710  
    2.07200   137.2160u    2.0720  
    2.07300   137.2324u    2.0730  
    2.07400   137.2487u    2.0740  
    2.07500   137.2651u    2.0750  
    2.07600   137.2815u    2.0760  
    2.07700   137.2979u    2.0770  
    2.07800   137.3143u    2.0780  
    2.07900   137.3307u    2.0790  
    2.08000   137.3470u    2.0800  
    2.08100   137.3634u    2.0810  
    2.08200   137.3798u    2.0820  
    2.08300   137.3962u    2.0830  
    2.08400   137.4126u    2.0840  
    2.08500   137.4289u    2.0850  
    2.08600   137.4453u    2.0860  
    2.08700   137.4617u    2.0870  
    2.08800   137.4781u    2.0880  
    2.08900   137.4945u    2.0890  
    2.09000   137.5108u    2.0900  
    2.09100   137.5272u    2.0910  
    2.09200   137.5436u    2.0920  
    2.09300   137.5600u    2.0930  
    2.09400   137.5763u    2.0940  
    2.09500   137.5927u    2.0950  
    2.09600   137.6091u    2.0960  
    2.09700   137.6255u    2.0970  
    2.09800   137.6418u    2.0980  
    2.09900   137.6582u    2.0990  
    2.10000   137.6746u    2.1000  
    2.10100   137.6910u    2.1010  
    2.10200   137.7073u    2.1020  
    2.10300   137.7237u    2.1030  
    2.10400   137.7401u    2.1040  
    2.10500   137.7565u    2.1050  
    2.10600   137.7728u    2.1060  
    2.10700   137.7892u    2.1070  
    2.10800   137.8056u    2.1080  
    2.10900   137.8219u    2.1090  
    2.11000   137.8383u    2.1100  
    2.11100   137.8547u    2.1110  
    2.11200   137.8710u    2.1120  
    2.11300   137.8874u    2.1130  
    2.11400   137.9038u    2.1140  
    2.11500   137.9201u    2.1150  
    2.11600   137.9365u    2.1160  
    2.11700   137.9529u    2.1170  
    2.11800   137.9692u    2.1180  
    2.11900   137.9856u    2.1190  
    2.12000   138.0020u    2.1200  
    2.12100   138.0183u    2.1210  
    2.12200   138.0347u    2.1220  
    2.12300   138.0511u    2.1230  
    2.12400   138.0674u    2.1240  
    2.12500   138.0838u    2.1250  
    2.12600   138.1002u    2.1260  
    2.12700   138.1165u    2.1270  
    2.12800   138.1329u    2.1280  
    2.12900   138.1493u    2.1290  
    2.13000   138.1656u    2.1300  
    2.13100   138.1820u    2.1310  
    2.13200   138.1983u    2.1320  
    2.13300   138.2147u    2.1330  
    2.13400   138.2311u    2.1340  
    2.13500   138.2474u    2.1350  
    2.13600   138.2638u    2.1360  
    2.13700   138.2801u    2.1370  
    2.13800   138.2965u    2.1380  
    2.13900   138.3129u    2.1390  
    2.14000   138.3292u    2.1400  
    2.14100   138.3456u    2.1410  
    2.14200   138.3619u    2.1420  
    2.14300   138.3783u    2.1430  
    2.14400   138.3947u    2.1440  
    2.14500   138.4110u    2.1450  
    2.14600   138.4274u    2.1460  
    2.14700   138.4437u    2.1470  
    2.14800   138.4601u    2.1480  
    2.14900   138.4764u    2.1490  
    2.15000   138.4928u    2.1500  
    2.15100   138.5091u    2.1510  
    2.15200   138.5255u    2.1520  
    2.15300   138.5419u    2.1530  
    2.15400   138.5582u    2.1540  
    2.15500   138.5746u    2.1550  
    2.15600   138.5909u    2.1560  
    2.15700   138.6073u    2.1570  
    2.15800   138.6236u    2.1580  
    2.15900   138.6400u    2.1590  
    2.16000   138.6563u    2.1600  
    2.16100   138.6727u    2.1610  
    2.16200   138.6890u    2.1620  
    2.16300   138.7054u    2.1630  
    2.16400   138.7217u    2.1640  
    2.16500   138.7381u    2.1650  
    2.16600   138.7544u    2.1660  
    2.16700   138.7708u    2.1670  
    2.16800   138.7871u    2.1680  
    2.16900   138.8035u    2.1690  
    2.17000   138.8198u    2.1700  
    2.17100   138.8362u    2.1710  
    2.17200   138.8525u    2.1720  
    2.17300   138.8689u    2.1730  
    2.17400   138.8852u    2.1740  
    2.17500   138.9016u    2.1750  
    2.17600   138.9179u    2.1760  
    2.17700   138.9343u    2.1770  
    2.17800   138.9506u    2.1780  
    2.17900   138.9670u    2.1790  
[...]
    4.48500   160.7860u    4.4850  
    4.48600   160.7942u    4.4860  
    4.48700   160.8024u    4.4870  
    4.48800   160.8105u    4.4880  
    4.48900   160.8187u    4.4890  
    4.49000   160.8269u    4.4900  
    4.49100   160.8351u    4.4910  
    4.49200   160.8432u    4.4920  
    4.49300   160.8514u    4.4930  
    4.49400   160.8596u    4.4940  
    4.49500   160.8677u    4.4950  
    4.49600   160.8759u    4.4960  
    4.49700   160.8841u    4.4970  
    4.49800   160.8923u    4.4980  
    4.49900   160.9004u    4.4990  
    4.50000   160.9086u    4.5000  
    4.50100   160.9168u    4.5010  
    4.50200   160.9250u    4.5020  
    4.50300   160.9331u    4.5030  
    4.50400   160.9413u    4.5040  
    4.50500   160.9495u    4.5050  
    4.50600   160.9577u    4.5060  
    4.50700   160.9658u    4.5070  
    4.50800   160.9740u    4.5080  
    4.50900   160.9822u    4.5090  
    4.51000   160.9903u    4.5100  
    4.51100   160.9985u    4.5110  
    4.51200   161.0067u    4.5120  
    4.51300   161.0149u    4.5130  
    4.51400   161.0230u    4.5140  
    4.51500   161.0312u    4.5150  
    4.51600   161.0394u    4.5160  
    4.51700   161.0475u    4.5170  
    4.51800   161.0557u    4.5180  
    4.51900   161.0639u    4.5190  
    4.52000   161.0721u    4.5200  
    4.52100   161.0802u    4.5210  
    4.52200   161.0884u    4.5220  
    4.52300   161.0966u    4.5230  
    4.52400   161.1047u    4.5240  
    4.52500   161.1129u    4.5250  
    4.52600   161.1211u    4.5260  
    4.52700   161.1292u    4.5270  
    4.52800   161.1374u    4.5280  
    4.52900   161.1456u    4.5290  
    4.53000   161.1537u    4.5300  
    4.53100   161.1619u    4.5310  
    4.53200   161.1701u    4.5320  
    4.53300   161.1783u    4.5330  
    4.53400   161.1864u    4.5340  
    4.53500   161.1946u    4.5350  
    4.53600   161.2028u    4.5360  
    4.53700   161.2109u    4.5370  
    4.53800   161.2191u    4.5380  
    4.53900   161.2273u    4.5390  
    4.54000   161.2354u    4.5400  
    4.54100   161.2436u    4.5410  
    4.54200   161.2518u    4.5420  
    4.54300   161.2599u    4.5430  
    4.54400   161.2681u    4.5440  
    4.54500   161.2763u    4.5450  
    4.54600   161.2844u    4.5460  
    4.54700   161.2926u    4.5470  
    4.54800   161.3008u    4.5480  
    4.54900   161.3089u    4.5490  
    4.55000   161.3171u    4.5500  
    4.55100   161.3253u    4.5510  
    4.55200   161.3334u    4.5520  
    4.55300   161.3416u    4.5530  
    4.55400   161.3498u    4.5540  
    4.55500   161.3579u    4.5550  
    4.55600   161.3661u    4.5560  
    4.55700   161.3742u    4.5570  
    4.55800   161.3824u    4.5580  
    4.55900   161.3906u    4.5590  
    4.56000   161.3987u    4.5600  
    4.56100   161.4069u    4.5610  
    4.56200   161.4151u    4.5620  
    4.56300   161.4232u    4.5630  
    4.56400   161.4314u    4.5640  
    4.56500   161.4396u    4.5650  
    4.56600   161.4477u    4.5660  
    4.56700   161.4559u    4.5670  
    4.56800   161.4641u    4.5680  
    4.56900   161.4722u    4.5690  
    4.57000   161.4804u    4.5700  
    4.57100   161.4885u    4.5710  
    4.57200   161.4967u    4.5720  
    4.57300   161.5049u    4.5730  
    4.57400   161.5130u    4.5740  
    4.57500   161.5212u    4.5750  
    4.57600   161.5294u    4.5760  
    4.57700   161.5375u    4.5770  
    4.57800   161.5457u    4.5780  
    4.57900   161.5538u    4.5790  
    4.58000   161.5620u    4.5800  
    4.58100   161.5702u    4.5810  
    4.58200   161.5783u    4.5820  
    4.58300   161.5865u    4.5830  
    4.58400   161.5947u    4.5840  
    4.58500   161.6028u    4.5850  
    4.58600   161.6110u    4.5860  
    4.58700   161.6191u    4.5870  
    4.58800   161.6273u    4.5880  
    4.58900   161.6355u    4.5890  
    4.59000   161.6436u    4.5900  
    4.59100   161.6518u    4.5910  
    4.59200   161.6599u    4.5920  
    4.59300   161.6681u    4.5930  
    4.59400   161.6763u    4.5940  
    4.59500   161.6844u    4.5950  
    4.59600   161.6926u    4.5960  
    4.59700   161.7007u    4.5970  
    4.59800   161.7089u    4.5980  
    4.59900   161.7171u    4.5990  
    4.60000   161.7252u    4.6000  
    4.60100   161.7334u    4.6010  
    4.60200   161.7415u    4.6020  
    4.60300   161.7497u    4.6030  
    4.60400   161.7579u    4.6040  
    4.60500   161.7660u    4.6050  
    4.60600   161.7742u    4.6060  
    4.60700   161.7823u    4.6070  
    4.60800   161.7905u    4.6080  
    4.60900   161.7986u    4.6090  
    4.61000   161.8068u    4.6100  
    4.61100   161.8150u    4.6110  
    4.61200   161.8231u    4.6120  
    4.61300   161.8313u    4.6130  
    4.61400   161.8394u    4.6140  
    4.61500   161.8476u    4.6150  
    4.61600   161.8557u    4.6160  
    4.61700   161.8639u    4.6170  
    4.61800   161.8721u    4.6180  
    4.61900   161.8802u    4.6190  
    4.62000   161.8884u    4.6200  
    4.62100   161.8965u    4.6210  
    4.62200   161.9047u    4.6220  
    4.62300   161.9128u    4.6230  
    4.62400   161.9210u    4.6240  
    4.62500   161.9292u    4.6250  
    4.62600   161.9373u    4.6260  
    4.62700   161.9455u    4.6270  
    4.62800   161.9536u    4.6280  
    4.62900   161.9618u    4.6290  
    4.63000   161.9699u    4.6300  
    4.63100   161.9781u    4.6310  
    4.63200   161.9862u    4.6320  
    4.63300   161.9944u    4.6330  
    4.63400   162.0026u    4.6340  
    4.63500   162.0107u    4.6350  
    4.63600   162.0189u    4.6360  
    4.63700   162.0270u    4.6370  
    4.63800   162.0352u    4.6380  
    4.63900   162.0433u    4.6390  
    4.64000   162.0515u    4.6400  
    4.64100   162.0596u    4.6410  
    4.64200   162.0678u    4.6420  
    4.64300   162.0759u    4.6430  
    4.64400   162.0841u    4.6440  
    4.64500   162.0922u    4.6450  
    4.64600   162.1004u    4.6460  
    4.64700   162.1086u    4.6470  
    4.64800   162.1167u    4.6480  
    4.64900   162.1249u    4.6490  
    4.65000   162.1330u    4.6500  
    4.65100   162.1412u    4.6510  
    4.65200   162.1493u    4.6520  
    4.65300   162.1575u    4.6530  
    4.65400   162.1656u    4.6540  
    4.65500   162.1738u    4.6550  
    4.65600   162.1819u    4.6560  
    4.65700   162.1901u    4.6570  
    4.65800   162.1982u    4.6580  
    4.65900   162.2064u    4.6590  
    4.66000   162.2145u    4.6600  
    4.66100   162.2227u    4.6610  
    4.66200   162.2308u    4.6620  
    4.66300   162.2390u    4.6630  
    4.66400   162.2471u    4.6640  
    4.66500   162.2553u    4.6650  
    4.66600   162.2634u    4.6660  
    4.66700   162.2716u    4.6670  
    4.66800   162.2797u    4.6680  
    4.66900   162.2879u    4.6690  
    4.67000   162.2960u    4.6700  
    4.67100   162.3042u    4.6710  
    4.67200   162.3123u    4.6720  
    4.67300   162.3205u    4.6730  
    4.67400   162.3286u    4.6740  
    4.67500   162.3368u    4.6750  
    4.67600   162.3449u    4.6760  
    4.67700   162.3531u    4.6770  
    4.67800   162.3612u    4.6780  
    4.67900   162.3694u    4.6790  
    4.68000   162.3775u    4.6800  
    4.68100   162.3857u    4.6810  
    4.68200   162.3938u    4.6820  
    4.68300   162.4020u    4.6830  
    4.68400   162.4101u    4.6840  
    4.68500   162.4183u    4.6850  
    4.68600   162.4264u    4.6860  
    4.68700   162.4346u    4.6870  
    4.68800   162.4427u    4.6880  
    4.68900   162.4509u    4.6890  
    4.69000   162.4590u    4.6900  
    4.69100   162.4672u    4.6910  
    4.69200   162.4753u    4.6920  
    4.69300   162.4835u    4.6930  
    4.69400   162.4916u    4.6940  
    4.69500   162.4998u    4.6950  
    4.69600   162.5079u    4.6960  
    4.69700   162.5161u    4.6970  
    4.69800   162.5242u    4.6980  
    4.69900   162.5324u    4.6990  
    4.70000   162.5405u    4.7000  
    4.70100   162.5486u    4.7010  
    4.70200   162.5568u    4.7020  
    4.70300   162.5649u    4.7030  
    4.70400   162.5731u    4.7040  
    4.70500   162.5812u    4.7050  
    4.70600   162.5894u    4.7060  
    4.70700   162.5975u    4.7070  
    4.70800   162.6057u    4.7080  
    4.70900   162.6138u    4.7090  
    4.71000   162.6220u    4.7100  
    4.71100   162.6301u    4.7110  
    4.71200   162.6383u    4.7120  
    4.71300   162.6464u    4.7130  
    4.71400   162.6545u    4.7140  
    4.71500   162.6627u    4.7150  
    4.71600   162.6708u    4.7160  
    4.71700   162.6790u    4.7170  
    4.71800   162.6871u    4.7180  
    4.71900   162.6953u    4.7190  
    4.72000   162.7034u    4.7200  
    4.72100   162.7116u    4.7210  
    4.72200   162.7197u    4.7220  
    4.72300   162.7278u    4.7230  
    4.72400   162.7360u    4.7240  
    4.72500   162.7441u    4.7250  
    4.72600   162.7523u    4.7260  
    4.72700   162.7604u    4.7270  
    4.72800   162.7686u    4.7280  
    4.72900   162.7767u    4.7290  
    4.73000   162.7849u    4.7300  
    4.73100   162.7930u    4.7310  
    4.73200   162.8011u    4.7320  
    4.73300   162.8093u    4.7330  
    4.73400   162.8174u    4.7340  
    4.73500   162.8256u    4.7350  
    4.73600   162.8337u    4.7360  
    4.73700   162.8419u    4.7370  
    4.73800   162.8500u    4.7380  
    4.73900   162.8581u    4.7390  
    4.74000   162.8663u    4.7400  
    4.74100   162.8744u    4.7410  
    4.74200   162.8826u    4.7420  
    4.74300   162.8907u    4.7430  
    4.74400   162.8988u    4.7440  
    4.74500   162.9070u    4.7450  
    4.74600   162.9151u    4.7460  
    4.74700   162.9233u    4.7470  
    4.74800   162.9314u    4.7480  
    4.74900   162.9396u    4.7490  
    4.75000   162.9477u    4.7500  
    4.75100   162.9558u    4.7510  
    4.75200   162.9640u    4.7520  
    4.75300   162.9721u    4.7530  
    4.75400   162.9803u    4.7540  
    4.75500   162.9884u    4.7550  
    4.75600   162.9965u    4.7560  
    4.75700   163.0047u    4.7570  
    4.75800   163.0128u    4.7580  
    4.75900   163.0210u    4.7590  
    4.76000   163.0291u    4.7600  
    4.76100   163.0372u    4.7610  
    4.76200   163.0454u    4.7620  
    4.76300   163.0535u    4.7630  
    4.76400   163.0617u    4.7640  
    4.76500   163.0698u    4.7650  
    4.76600   163.0779u    4.7660  
    4.76700   163.0861u    4.7670  
    4.76800   163.0942u    4.7680  
    4.76900   163.1024u    4.7690  
    4.77000   163.1105u    4.7700  
    4.77100   163.1186u    4.7710  
    4.77200   163.1268u    4.7720  
    4.77300   163.1349u    4.7730  
    4.77400   163.1431u    4.7740  
    4.77500   163.1512u    4.7750  
    4.77600   163.1593u    4.7760  
    4.77700   163.1675u    4.7770  
    4.77800   163.1756u    4.7780  
    4.77900   163.1838u    4.7790  
    4.78000   163.1919u    4.7800  
    4.78100   163.2000u    4.7810  
    4.78200   163.2082u    4.7820  
    4.78300   163.2163u    4.7830  
    4.78400   163.2244u    4.7840  
    4.78500   163.2326u    4.7850  
    4.78600   163.2407u    4.7860  
    4.78700   163.2489u    4.7870  
    4.78800   163.2570u    4.7880  
    4.78900   163.2651u    4.7890  
    4.79000   163.2733u    4.7900  
    4.79100   163.2814u    4.7910  
    4.79200   163.2895u    4.7920  
    4.79300   163.2977u    4.7930  
    4.79400   163.3058u    4.7940  
    4.79500   163.3140u    4.7950  
    4.79600   163.3221u    4.7960  
    4.79700   163.3302u    4.7970  
    4.79800   163.3384u    4.7980  
    4.79900   163.3465u    4.7990  
    4.80000   163.3546u    4.8000  
    4.80100   163.3628u    4.8010  
    4.80200   163.3709u    4.8020  
    4.80300   163.3790u    4.8030  
    4.80400   163.3872u    4.8040  
    4.80500   163.3953u    4.8050  
    4.80600   163.4034u    4.8060  
    4.80700   163.4116u    4.8070  
    4.80800   163.4197u    4.8080  
    4.80900   163.4279u    4.8090  
    4.81000   163.4360u    4.8100  
    4.81100   163.4441u    4.8110  
    4.81200   163.4523u    4.8120  
    4.81300   163.4604u    4.8130  
    4.81400   163.4685u    4.8140  
    4.81500   163.4767u    4.8150  
    4.81600   163.4848u    4.8160  
    4.81700   163.4929u    4.8170  
    4.81800   163.5011u    4.8180  
    4.81900   163.5092u    4.8190  
    4.82000   163.5173u    4.8200  
    4.82100   163.5255u    4.8210  
    4.82200   163.5336u    4.8220  
    4.82300   163.5417u    4.8230  
    4.82400   163.5499u    4.8240  
    4.82500   163.5580u    4.8250  
    4.82600   163.5661u    4.8260  
    4.82700   163.5743u    4.8270  
    4.82800   163.5824u    4.8280  
    4.82900   163.5905u    4.8290  
    4.83000   163.5987u    4.8300  
    4.83100   163.6068u    4.8310  
    4.83200   163.6149u    4.8320  
    4.83300   163.6231u    4.8330  
    4.83400   163.6312u    4.8340  
    4.83500   163.6393u    4.8350  
    4.83600   163.6475u    4.8360  
    4.83700   163.6556u    4.8370  
    4.83800   163.6637u    4.8380  
    4.83900   163.6719u    4.8390  
    4.84000   163.6800u    4.8400  
    4.84100   163.6881u    4.8410  
    4.84200   163.6963u    4.8420  
    4.84300   163.7044u    4.8430  
    4.84400   163.7125u    4.8440  
    4.84500   163.7207u    4.8450  
    4.84600   163.7288u    4.8460  
    4.84700   163.7369u    4.8470  
    4.84800   163.7451u    4.8480  
    4.84900   163.7532u    4.8490  
    4.85000   163.7613u    4.8500  
    4.85100   163.7695u    4.8510  
    4.85200   163.7776u    4.8520  
    4.85300   163.7857u    4.8530  
    4.85400   163.7938u    4.8540  
    4.85500   163.8020u    4.8550  
    4.85600   163.8101u    4.8560  
    4.85700   163.8182u    4.8570  
    4.85800   163.8264u    4.8580  
    4.85900   163.8345u    4.8590  
    4.86000   163.8426u    4.8600  
    4.86100   163.8508u    4.8610  
    4.86200   163.8589u    4.8620  
    4.86300   163.8670u    4.8630  
    4.86400   163.8751u    4.8640  
    4.86500   163.8833u    4.8650  
    4.86600   163.8914u    4.8660  
    4.86700   163.8995u    4.8670  
    4.86800   163.9077u    4.8680  
    4.86900   163.9158u    4.8690  
    4.87000   163.9239u    4.8700  
    4.87100   163.9321u    4.8710  
    4.87200   163.9402u    4.8720  
    4.87300   163.9483u    4.8730  
    4.87400   163.9564u    4.8740  
    4.87500   163.9646u    4.8750  
    4.87600   163.9727u    4.8760  
    4.87700   163.9808u    4.8770  
    4.87800   163.9890u    4.8780  
    4.87900   163.9971u    4.8790  
    4.88000   164.0052u    4.8800  
    4.88100   164.0133u    4.8810  
    4.88200   164.0215u    4.8820  
    4.88300   164.0296u    4.8830  
    4.88400   164.0377u    4.8840  
    4.88500   164.0459u    4.8850  
    4.88600   164.0540u    4.8860  
    4.88700   164.0621u    4.8870  
    4.88800   164.0702u    4.8880  
    4.88900   164.0784u    4.8890  
    4.89000   164.0865u    4.8900  
    4.89100   164.0946u    4.8910  
    4.89200   164.1028u    4.8920  
    4.89300   164.1109u    4.8930  
    4.89400   164.1190u    4.8940  
    4.89500   164.1271u    4.8950  
    4.89600   164.1353u    4.8960  
    4.89700   164.1434u    4.8970  
    4.89800   164.1515u    4.8980  
    4.89900   164.1596u    4.8990  
    4.90000   164.1678u    4.9000  
    4.90100   164.1759u    4.9010  
    4.90200   164.1840u    4.9020  
    4.90300   164.1922u    4.9030  
    4.90400   164.2003u    4.9040  
    4.90500   164.2084u    4.9050  
    4.90600   164.2165u    4.9060  
    4.90700   164.2247u    4.9070  
    4.90800   164.2328u    4.9080  
    4.90900   164.2409u    4.9090  
    4.91000   164.2490u    4.9100  
    4.91100   164.2572u    4.9110  
    4.91200   164.2653u    4.9120  
    4.91300   164.2734u    4.9130  
    4.91400   164.2815u    4.9140  
    4.91500   164.2897u    4.9150  
    4.91600   164.2978u    4.9160  
    4.91700   164.3059u    4.9170  
    4.91800   164.3140u    4.9180  
    4.91900   164.3222u    4.9190  
    4.92000   164.3303u    4.9200  
    4.92100   164.3384u    4.9210  
    4.92200   164.3465u    4.9220  
    4.92300   164.3547u    4.9230  
    4.92400   164.3628u    4.9240  
    4.92500   164.3709u    4.9250  
    4.92600   164.3790u    4.9260  
    4.92700   164.3872u    4.9270  
    4.92800   164.3953u    4.9280  
    4.92900   164.4034u    4.9290  
    4.93000   164.4115u    4.9300  
    4.93100   164.4197u    4.9310  
    4.93200   164.4278u    4.9320  
    4.93300   164.4359u    4.9330  
    4.93400   164.4440u    4.9340  
    4.93500   164.4522u    4.9350  
    4.93600   164.4603u    4.9360  
    4.93700   164.4684u    4.9370  
    4.93800   164.4765u    4.9380  
    4.93900   164.4847u    4.9390  
    4.94000   164.4928u    4.9400  
    4.94100   164.5009u    4.9410  
    4.94200   164.5090u    4.9420  
    4.94300   164.5172u    4.9430  
    4.94400   164.5253u    4.9440  
    4.94500   164.5334u    4.9450  
    4.94600   164.5415u    4.9460  
    4.94700   164.5497u    4.9470  
    4.94800   164.5578u    4.9480  
    4.94900   164.5659u    4.9490  
    4.95000   164.5740u    4.9500  
    4.95100   164.5821u    4.9510  
    4.95200   164.5903u    4.9520  
    4.95300   164.5984u    4.9530  
    4.95400   164.6065u    4.9540  
    4.95500   164.6146u    4.9550  
    4.95600   164.6228u    4.9560  
    4.95700   164.6309u    4.9570  
    4.95800   164.6390u    4.9580  
    4.95900   164.6471u    4.9590  
    4.96000   164.6552u    4.9600  
    4.96100   164.6634u    4.9610  
    4.96200   164.6715u    4.9620  
    4.96300   164.6796u    4.9630  
    4.96400   164.6877u    4.9640  
    4.96500   164.6959u    4.9650  
    4.96600   164.7040u    4.9660  
    4.96700   164.7121u    4.9670  
    4.96800   164.7202u    4.9680  
    4.96900   164.7283u    4.9690  
    4.97000   164.7365u    4.9700  
    4.97100   164.7446u    4.9710  
    4.97200   164.7527u    4.9720  
    4.97300   164.7608u    4.9730  
    4.97400   164.7690u    4.9740  
    4.97500   164.7771u    4.9750  
    4.97600   164.7852u    4.9760  
    4.97700   164.7933u    4.9770  
    4.97800   164.8014u    4.9780  
    4.97900   164.8096u    4.9790  
    4.98000   164.8177u    4.9800  
    4.98100   164.8258u    4.9810  
    4.98200   164.8339u    4.9820  
    4.98300   164.8420u    4.9830  
    4.98400   164.8502u    4.9840  
    4.98500   164.8583u    4.9850  
    4.98600   164.8664u    4.9860  
    4.98700   164.8745u    4.9870  
    4.98800   164.8826u    4.9880  
    4.98900   164.8908u    4.9890  
    4.99000   164.8989u    4.9900  
    4.99100   164.9070u    4.9910  
    4.99200   164.9151u    4.9920  
    4.99300   164.9232u    4.9930  
    4.99400   164.9314u    4.9940  
    4.99500   164.9395u    4.9950  
    4.99600   164.9476u    4.9960  
    4.99700   164.9557u    4.9970  
    4.99800   164.9638u    4.9980  
    4.99900   164.9720u    4.9990  
    5.00000   164.9801u    5.0000  
y

          ***** job concluded
 ******  
 

 ****** job statistics summary tnom=  25.000 temp=  25.000 ******

  ******  Circuit Statistics  ******
  # nodes       =       3 # elements   =       3
  # resistors   =       0 # capacitors =       0 # inductors   =       0
  # mutual_inds =       0 # vccs       =       0 # vcvs        =       0
  # cccs        =       0 # ccvs       =       0 # volt_srcs   =       2
  # curr_srcs   =       0 # diodes     =       0 # bjts        =       0
  # jfets       =       0 # mosfets    =       1 # U elements  =       0
  # T elements  =       0 # W elements =       0 # B elements  =       0
  # S elements  =       0 # P elements =       0 # va device   =       0
  # vector_srcs =       0 # N elements =       0


  ******  Runtime Statistics (seconds)  ******

  analysis           time    # points   tot. iter  conv.iter
  op point           0.00           1           0
  dc sweep           0.13        5001       10003
  readin             0.00
  errchk             0.00
  setup              0.00
  output             0.00


           peak memory used         63.67 megabytes
           total cpu time            0.16 seconds
           total elapsed time        0.17 seconds
           job started at     10:40:42 10/29/2021
           job ended   at     10:40:43 10/29/2021


  lic: Release hspice token(s) 
 lic: total license checkout elapse time:        0.02(s)
