 ****** HSPICE -- O-2018.09-SP2 win64 (Feb 25 2019) ******                      
  Copyright (c) 1986 - 2021 by Synopsys, Inc. All Rights Reserved.              
  This software and the associated documentation are proprietary
  to Synopsys, Inc. This software may only be used in accordance
  with the terms and conditions of a written license agreement with
  Synopsys, Inc. All other use, reproduction, or distribution of
  this software is strictly prohibited.
  Input File: nmos.sp                                                           
  Command line options: C:\synopsys\Hspice_O-2018.09-SP2\WIN64\hspice.com -i nmos.sp -o C:\sdsy\case1\nmos.lis
  Start time: Tue Nov  2 23:45:35 2021
  lic:  
  lic: FLEXlm: SDK_11.7.3 
  lic: USER:   admin                HOSTNAME: DESKTOP-3KO7170 
  lic: HOSTID: "d83bbfb49802"       PID:      44332 
  lic: Using FLEXlm license file: 
  lic: 27000@DESKTOP-3KO7170 
  lic: Checkout 1 hspice 
  lic: License/Maintenance for hspice will expire on 30-dec-2029/2019.2019 
  lic: 1(in_use)/99(total) FLOATING license(s) on SERVER 27000@DESKTOP-3KO7170 
  lic:   
  
      

Element variations(Local):   element              parameter
 *****************************************************************
 ******  option summary
 ******
 runlvl  = 3         bypass  = 2.0000    
 ******
 

 ****** dc transfer curves tnom=  25.000 temp=  25.000 ******
x

 volt         current    voltage   
             m1         vin        
    0.       -930.1197p    0.      
    1.00000m  130.9265n    1.0000m 
    2.00000m  262.1211n    2.0000m 
    3.00000m  392.6537n    3.0000m 
    4.00000m  522.5244n    4.0000m 
    5.00000m  651.7334n    5.0000m 
    6.00000m  780.2808n    6.0000m 
    7.00000m  908.1668n    7.0000m 
    8.00000m    1.0354u    8.0000m 
    9.00000m    1.1620u    9.0000m 
   10.00000m    1.2879u   10.0000m 
   11.00000m    1.4131u   11.0000m 
   12.00000m    1.5377u   12.0000m 
   13.00000m    1.6616u   13.0000m 
   14.00000m    1.7849u   14.0000m 
   15.00000m    1.9075u   15.0000m 
   16.00000m    2.0294u   16.0000m 
   17.00000m    2.1507u   17.0000m 
   18.00000m    2.2713u   18.0000m 
   19.00000m    2.3913u   19.0000m 
   20.00000m    2.5106u   20.0000m 
   21.00000m    2.6292u   21.0000m 
   22.00000m    2.7472u   22.0000m 
   23.00000m    2.8645u   23.0000m 
   24.00000m    2.9812u   24.0000m 
   25.00000m    3.0972u   25.0000m 
   26.00000m    3.2125u   26.0000m 
   27.00000m    3.3272u   27.0000m 
   28.00000m    3.4412u   28.0000m 
   29.00000m    3.5546u   29.0000m 
   30.00000m    3.6673u   30.0000m 
   31.00000m    3.7794u   31.0000m 
   32.00000m    3.8908u   32.0000m 
   33.00000m    4.0015u   33.0000m 
   34.00000m    4.1116u   34.0000m 
   35.00000m    4.2210u   35.0000m 
   36.00000m    4.3298u   36.0000m 
   37.00000m    4.4379u   37.0000m 
   38.00000m    4.5454u   38.0000m 
   39.00000m    4.6522u   39.0000m 
   40.00000m    4.7583u   40.0000m 
   41.00000m    4.8638u   41.0000m 
   42.00000m    4.9686u   42.0000m 
   43.00000m    5.0728u   43.0000m 
   44.00000m    5.1764u   44.0000m 
   45.00000m    5.2792u   45.0000m 
   46.00000m    5.3814u   46.0000m 
   47.00000m    5.4830u   47.0000m 
   48.00000m    5.5839u   48.0000m 
   49.00000m    5.6842u   49.0000m 
   50.00000m    5.7838u   50.0000m 
   51.00000m    5.8827u   51.0000m 
   52.00000m    5.9810u   52.0000m 
   53.00000m    6.0787u   53.0000m 
   54.00000m    6.1757u   54.0000m 
   55.00000m    6.2720u   55.0000m 
   56.00000m    6.3677u   56.0000m 
   57.00000m    6.4627u   57.0000m 
   58.00000m    6.5571u   58.0000m 
   59.00000m    6.6509u   59.0000m 
   60.00000m    6.7440u   60.0000m 
   61.00000m    6.8364u   61.0000m 
   62.00000m    6.9282u   62.0000m 
   63.00000m    7.0193u   63.0000m 
   64.00000m    7.1098u   64.0000m 
   65.00000m    7.1997u   65.0000m 
   66.00000m    7.2889u   66.0000m 
   67.00000m    7.3774u   67.0000m 
   68.00000m    7.4653u   68.0000m 
   69.00000m    7.5526u   69.0000m 
   70.00000m    7.6392u   70.0000m 
   71.00000m    7.7251u   71.0000m 
   72.00000m    7.8105u   72.0000m 
   73.00000m    7.8951u   73.0000m 
   74.00000m    7.9792u   74.0000m 
   75.00000m    8.0626u   75.0000m 
   76.00000m    8.1453u   76.0000m 
   77.00000m    8.2274u   77.0000m 
   78.00000m    8.3089u   78.0000m 
   79.00000m    8.3897u   79.0000m 
   80.00000m    8.4698u   80.0000m 
   81.00000m    8.5494u   81.0000m 
   82.00000m    8.6283u   82.0000m 
   83.00000m    8.7065u   83.0000m 
   84.00000m    8.7841u   84.0000m 
   85.00000m    8.8611u   85.0000m 
   86.00000m    8.9375u   86.0000m 
   87.00000m    9.0132u   87.0000m 
   88.00000m    9.0882u   88.0000m 
   89.00000m    9.1627u   89.0000m 
   90.00000m    9.2365u   90.0000m 
   91.00000m    9.3096u   91.0000m 
   92.00000m    9.3822u   92.0000m 
   93.00000m    9.4540u   93.0000m 
   94.00000m    9.5253u   94.0000m 
   95.00000m    9.5959u   95.0000m 
   96.00000m    9.6659u   96.0000m 
   97.00000m    9.7353u   97.0000m 
   98.00000m    9.8041u   98.0000m 
   99.00000m    9.8722u   99.0000m 
  100.00000m    9.9397u  100.0000m 
  101.00000m   10.0065u  101.0000m 
  102.00000m   10.0728u  102.0000m 
  103.00000m   10.1384u  103.0000m 
  104.00000m   10.2034u  104.0000m 
  105.00000m   10.2677u  105.0000m 
  106.00000m   10.3315u  106.0000m 
  107.00000m   10.3946u  107.0000m 
  108.00000m   10.4571u  108.0000m 
  109.00000m   10.5190u  109.0000m 
  110.00000m   10.5803u  110.0000m 
  111.00000m   10.6410u  111.0000m 
  112.00000m   10.7010u  112.0000m 
  113.00000m   10.7604u  113.0000m 
  114.00000m   10.8193u  114.0000m 
  115.00000m   10.8775u  115.0000m 
  116.00000m   10.9351u  116.0000m 
  117.00000m   10.9921u  117.0000m 
  118.00000m   11.0485u  118.0000m 
  119.00000m   11.1042u  119.0000m 
  120.00000m   11.1594u  120.0000m 
  121.00000m   11.2140u  121.0000m 
  122.00000m   11.2680u  122.0000m 
  123.00000m   11.3214u  123.0000m 
  124.00000m   11.3741u  124.0000m 
  125.00000m   11.4263u  125.0000m 
  126.00000m   11.4779u  126.0000m 
  127.00000m   11.5289u  127.0000m 
  128.00000m   11.5793u  128.0000m 
  129.00000m   11.6292u  129.0000m 
  130.00000m   11.6784u  130.0000m 
  131.00000m   11.7271u  131.0000m 
  132.00000m   11.7751u  132.0000m 
  133.00000m   11.8226u  133.0000m 
  134.00000m   11.8696u  134.0000m 
  135.00000m   11.9159u  135.0000m 
  136.00000m   11.9617u  136.0000m 
  137.00000m   12.0069u  137.0000m 
  138.00000m   12.0515u  138.0000m 
  139.00000m   12.0956u  139.0000m 
  140.00000m   12.1391u  140.0000m 
  141.00000m   12.1820u  141.0000m 
  142.00000m   12.2244u  142.0000m 
  143.00000m   12.2662u  143.0000m 
  144.00000m   12.3075u  144.0000m 
  145.00000m   12.3482u  145.0000m 
  146.00000m   12.3884u  146.0000m 
  147.00000m   12.4280u  147.0000m 
  148.00000m   12.4671u  148.0000m 
  149.00000m   12.5056u  149.0000m 
  150.00000m   12.5436u  150.0000m 
  151.00000m   12.5811u  151.0000m 
  152.00000m   12.6181u  152.0000m 
  153.00000m   12.6545u  153.0000m 
  154.00000m   12.6904u  154.0000m 
  155.00000m   12.7258u  155.0000m 
  156.00000m   12.7607u  156.0000m 
  157.00000m   12.7950u  157.0000m 
  158.00000m   12.8289u  158.0000m 
  159.00000m   12.8622u  159.0000m 
  160.00000m   12.8951u  160.0000m 
  161.00000m   12.9274u  161.0000m 
  162.00000m   12.9593u  162.0000m 
  163.00000m   12.9906u  163.0000m 
  164.00000m   13.0215u  164.0000m 
  165.00000m   13.0519u  165.0000m 
  166.00000m   13.0818u  166.0000m 
  167.00000m   13.1113u  167.0000m 
  168.00000m   13.1403u  168.0000m 
  169.00000m   13.1688u  169.0000m 
  170.00000m   13.1968u  170.0000m 
  171.00000m   13.2245u  171.0000m 
  172.00000m   13.2516u  172.0000m 
  173.00000m   13.2783u  173.0000m 
  174.00000m   13.3046u  174.0000m 
  175.00000m   13.3304u  175.0000m 
  176.00000m   13.3558u  176.0000m 
  177.00000m   13.3808u  177.0000m 
  178.00000m   13.4054u  178.0000m 
  179.00000m   13.4295u  179.0000m 
  180.00000m   13.4532u  180.0000m 
  181.00000m   13.4766u  181.0000m 
  182.00000m   13.4995u  182.0000m 
  183.00000m   13.5220u  183.0000m 
  184.00000m   13.5441u  184.0000m 
  185.00000m   13.5659u  185.0000m 
  186.00000m   13.5873u  186.0000m 
  187.00000m   13.6083u  187.0000m 
  188.00000m   13.6289u  188.0000m 
  189.00000m   13.6492u  189.0000m 
  190.00000m   13.6691u  190.0000m 
  191.00000m   13.6886u  191.0000m 
  192.00000m   13.7078u  192.0000m 
  193.00000m   13.7267u  193.0000m 
  194.00000m   13.7452u  194.0000m 
  195.00000m   13.7634u  195.0000m 
  196.00000m   13.7813u  196.0000m 
  197.00000m   13.7988u  197.0000m 
  198.00000m   13.8160u  198.0000m 
  199.00000m   13.8330u  199.0000m 
  200.00000m   13.8496u  200.0000m 
  201.00000m   13.8659u  201.0000m 
  202.00000m   13.8819u  202.0000m 
  203.00000m   13.8977u  203.0000m 
  204.00000m   13.9131u  204.0000m 
  205.00000m   13.9283u  205.0000m 
  206.00000m   13.9432u  206.0000m 
  207.00000m   13.9578u  207.0000m 
  208.00000m   13.9722u  208.0000m 
  209.00000m   13.9863u  209.0000m 
  210.00000m   14.0002u  210.0000m 
  211.00000m   14.0138u  211.0000m 
  212.00000m   14.0272u  212.0000m 
  213.00000m   14.0403u  213.0000m 
  214.00000m   14.0532u  214.0000m 
  215.00000m   14.0659u  215.0000m 
  216.00000m   14.0783u  216.0000m 
  217.00000m   14.0906u  217.0000m 
  218.00000m   14.1026u  218.0000m 
  219.00000m   14.1144u  219.0000m 
  220.00000m   14.1260u  220.0000m 
  221.00000m   14.1375u  221.0000m 
  222.00000m   14.1487u  222.0000m 
  223.00000m   14.1597u  223.0000m 
  224.00000m   14.1706u  224.0000m 
  225.00000m   14.1812u  225.0000m 
  226.00000m   14.1917u  226.0000m 
  227.00000m   14.2020u  227.0000m 
  228.00000m   14.2122u  228.0000m 
  229.00000m   14.2222u  229.0000m 
  230.00000m   14.2320u  230.0000m 
  231.00000m   14.2417u  231.0000m 
  232.00000m   14.2512u  232.0000m 
  233.00000m   14.2605u  233.0000m 
  234.00000m   14.2697u  234.0000m 
  235.00000m   14.2788u  235.0000m 
  236.00000m   14.2878u  236.0000m 
  237.00000m   14.2965u  237.0000m 
  238.00000m   14.3052u  238.0000m 
  239.00000m   14.3138u  239.0000m 
  240.00000m   14.3222u  240.0000m 
  241.00000m   14.3305u  241.0000m 
  242.00000m   14.3386u  242.0000m 
  243.00000m   14.3467u  243.0000m 
  244.00000m   14.3546u  244.0000m 
  245.00000m   14.3624u  245.0000m 
  246.00000m   14.3702u  246.0000m 
  247.00000m   14.3778u  247.0000m 
  248.00000m   14.3853u  248.0000m 
  249.00000m   14.3927u  249.0000m 
  250.00000m   14.4000u  250.0000m 
  251.00000m   14.4072u  251.0000m 
  252.00000m   14.4144u  252.0000m 
  253.00000m   14.4214u  253.0000m 
  254.00000m   14.4283u  254.0000m 
  255.00000m   14.4352u  255.0000m 
  256.00000m   14.4420u  256.0000m 
  257.00000m   14.4487u  257.0000m 
  258.00000m   14.4553u  258.0000m 
  259.00000m   14.4618u  259.0000m 
  260.00000m   14.4683u  260.0000m 
  261.00000m   14.4747u  261.0000m 
  262.00000m   14.4810u  262.0000m 
  263.00000m   14.4873u  263.0000m 
  264.00000m   14.4935u  264.0000m 
  265.00000m   14.4996u  265.0000m 
  266.00000m   14.5056u  266.0000m 
  267.00000m   14.5116u  267.0000m 
  268.00000m   14.5176u  268.0000m 
  269.00000m   14.5234u  269.0000m 
  270.00000m   14.5292u  270.0000m 
  271.00000m   14.5350u  271.0000m 
  272.00000m   14.5407u  272.0000m 
  273.00000m   14.5463u  273.0000m 
  274.00000m   14.5519u  274.0000m 
  275.00000m   14.5575u  275.0000m 
  276.00000m   14.5630u  276.0000m 
  277.00000m   14.5684u  277.0000m 
  278.00000m   14.5738u  278.0000m 
  279.00000m   14.5792u  279.0000m 
  280.00000m   14.5845u  280.0000m 
  281.00000m   14.5897u  281.0000m 
  282.00000m   14.5950u  282.0000m 
  283.00000m   14.6001u  283.0000m 
  284.00000m   14.6053u  284.0000m 
  285.00000m   14.6104u  285.0000m 
  286.00000m   14.6154u  286.0000m 
  287.00000m   14.6205u  287.0000m 
  288.00000m   14.6254u  288.0000m 
  289.00000m   14.6304u  289.0000m 
  290.00000m   14.6353u  290.0000m 
  291.00000m   14.6402u  291.0000m 
  292.00000m   14.6450u  292.0000m 
  293.00000m   14.6499u  293.0000m 
  294.00000m   14.6546u  294.0000m 
  295.00000m   14.6594u  295.0000m 
  296.00000m   14.6641u  296.0000m 
  297.00000m   14.6688u  297.0000m 
  298.00000m   14.6735u  298.0000m 
  299.00000m   14.6781u  299.0000m 
  300.00000m   14.6827u  300.0000m 
  301.00000m   14.6873u  301.0000m 
  302.00000m   14.6918u  302.0000m 
  303.00000m   14.6964u  303.0000m 
  304.00000m   14.7009u  304.0000m 
  305.00000m   14.7054u  305.0000m 
  306.00000m   14.7098u  306.0000m 
  307.00000m   14.7142u  307.0000m 
  308.00000m   14.7186u  308.0000m 
  309.00000m   14.7230u  309.0000m 
  310.00000m   14.7274u  310.0000m 
  311.00000m   14.7317u  311.0000m 
  312.00000m   14.7361u  312.0000m 
  313.00000m   14.7404u  313.0000m 
  314.00000m   14.7447u  314.0000m 
  315.00000m   14.7489u  315.0000m 
  316.00000m   14.7532u  316.0000m 
  317.00000m   14.7574u  317.0000m 
  318.00000m   14.7616u  318.0000m 
  319.00000m   14.7658u  319.0000m 
  320.00000m   14.7700u  320.0000m 
  321.00000m   14.7741u  321.0000m 
  322.00000m   14.7783u  322.0000m 
  323.00000m   14.7824u  323.0000m 
  324.00000m   14.7865u  324.0000m 
  325.00000m   14.7906u  325.0000m 
  326.00000m   14.7947u  326.0000m 
  327.00000m   14.7987u  327.0000m 
  328.00000m   14.8028u  328.0000m 
  329.00000m   14.8068u  329.0000m 
  330.00000m   14.8108u  330.0000m 
  331.00000m   14.8148u  331.0000m 
  332.00000m   14.8188u  332.0000m 
  333.00000m   14.8228u  333.0000m 
  334.00000m   14.8267u  334.0000m 
  335.00000m   14.8307u  335.0000m 
  336.00000m   14.8346u  336.0000m 
  337.00000m   14.8386u  337.0000m 
  338.00000m   14.8425u  338.0000m 
  339.00000m   14.8464u  339.0000m 
  340.00000m   14.8503u  340.0000m 
  341.00000m   14.8542u  341.0000m 
  342.00000m   14.8580u  342.0000m 
  343.00000m   14.8619u  343.0000m 
  344.00000m   14.8657u  344.0000m 
  345.00000m   14.8696u  345.0000m 
  346.00000m   14.8734u  346.0000m 
  347.00000m   14.8772u  347.0000m 
  348.00000m   14.8810u  348.0000m 
  349.00000m   14.8848u  349.0000m 
  350.00000m   14.8886u  350.0000m 
  351.00000m   14.8924u  351.0000m 
  352.00000m   14.8962u  352.0000m 
  353.00000m   14.9000u  353.0000m 
  354.00000m   14.9037u  354.0000m 
  355.00000m   14.9075u  355.0000m 
  356.00000m   14.9112u  356.0000m 
  357.00000m   14.9149u  357.0000m 
  358.00000m   14.9187u  358.0000m 
  359.00000m   14.9224u  359.0000m 
  360.00000m   14.9261u  360.0000m 
  361.00000m   14.9298u  361.0000m 
  362.00000m   14.9335u  362.0000m 
  363.00000m   14.9372u  363.0000m 
  364.00000m   14.9408u  364.0000m 
  365.00000m   14.9445u  365.0000m 
  366.00000m   14.9482u  366.0000m 
  367.00000m   14.9518u  367.0000m 
  368.00000m   14.9555u  368.0000m 
  369.00000m   14.9591u  369.0000m 
  370.00000m   14.9628u  370.0000m 
  371.00000m   14.9664u  371.0000m 
  372.00000m   14.9700u  372.0000m 
  373.00000m   14.9736u  373.0000m 
  374.00000m   14.9772u  374.0000m 
  375.00000m   14.9808u  375.0000m 
  376.00000m   14.9844u  376.0000m 
  377.00000m   14.9880u  377.0000m 
  378.00000m   14.9916u  378.0000m 
  379.00000m   14.9952u  379.0000m 
  380.00000m   14.9988u  380.0000m 
  381.00000m   15.0024u  381.0000m 
  382.00000m   15.0059u  382.0000m 
  383.00000m   15.0095u  383.0000m 
  384.00000m   15.0131u  384.0000m 
  385.00000m   15.0166u  385.0000m 
  386.00000m   15.0202u  386.0000m 
  387.00000m   15.0237u  387.0000m 
  388.00000m   15.0272u  388.0000m 
  389.00000m   15.0308u  389.0000m 
  390.00000m   15.0343u  390.0000m 
  391.00000m   15.0378u  391.0000m 
  392.00000m   15.0413u  392.0000m 
  393.00000m   15.0449u  393.0000m 
  394.00000m   15.0484u  394.0000m 
  395.00000m   15.0519u  395.0000m 
  396.00000m   15.0554u  396.0000m 
  397.00000m   15.0589u  397.0000m 
  398.00000m   15.0624u  398.0000m 
  399.00000m   15.0659u  399.0000m 
  400.00000m   15.0694u  400.0000m 
  401.00000m   15.0728u  401.0000m 
  402.00000m   15.0763u  402.0000m 
  403.00000m   15.0798u  403.0000m 
  404.00000m   15.0833u  404.0000m 
  405.00000m   15.0867u  405.0000m 
  406.00000m   15.0902u  406.0000m 
  407.00000m   15.0937u  407.0000m 
  408.00000m   15.0971u  408.0000m 
  409.00000m   15.1006u  409.0000m 
  410.00000m   15.1040u  410.0000m 
  411.00000m   15.1075u  411.0000m 
  412.00000m   15.1109u  412.0000m 
  413.00000m   15.1144u  413.0000m 
  414.00000m   15.1178u  414.0000m 
  415.00000m   15.1212u  415.0000m 
  416.00000m   15.1247u  416.0000m 
  417.00000m   15.1281u  417.0000m 
  418.00000m   15.1315u  418.0000m 
  419.00000m   15.1349u  419.0000m 
  420.00000m   15.1384u  420.0000m 
  421.00000m   15.1418u  421.0000m 
  422.00000m   15.1452u  422.0000m 
  423.00000m   15.1486u  423.0000m 
  424.00000m   15.1520u  424.0000m 
  425.00000m   15.1554u  425.0000m 
  426.00000m   15.1588u  426.0000m 
  427.00000m   15.1622u  427.0000m 
  428.00000m   15.1656u  428.0000m 
  429.00000m   15.1690u  429.0000m 
  430.00000m   15.1724u  430.0000m 
  431.00000m   15.1758u  431.0000m 
  432.00000m   15.1792u  432.0000m 
  433.00000m   15.1826u  433.0000m 
  434.00000m   15.1860u  434.0000m 
  435.00000m   15.1893u  435.0000m 
  436.00000m   15.1927u  436.0000m 
  437.00000m   15.1961u  437.0000m 
  438.00000m   15.1995u  438.0000m 
  439.00000m   15.2028u  439.0000m 
  440.00000m   15.2062u  440.0000m 
  441.00000m   15.2096u  441.0000m 
  442.00000m   15.2129u  442.0000m 
  443.00000m   15.2163u  443.0000m 
  444.00000m   15.2197u  444.0000m 
  445.00000m   15.2230u  445.0000m 
  446.00000m   15.2264u  446.0000m 
  447.00000m   15.2297u  447.0000m 
  448.00000m   15.2331u  448.0000m 
  449.00000m   15.2364u  449.0000m 
  450.00000m   15.2398u  450.0000m 
  451.00000m   15.2431u  451.0000m 
  452.00000m   15.2465u  452.0000m 
  453.00000m   15.2498u  453.0000m 
  454.00000m   15.2532u  454.0000m 
  455.00000m   15.2565u  455.0000m 
  456.00000m   15.2598u  456.0000m 
  457.00000m   15.2632u  457.0000m 
  458.00000m   15.2665u  458.0000m 
  459.00000m   15.2698u  459.0000m 
  460.00000m   15.2732u  460.0000m 
  461.00000m   15.2765u  461.0000m 
  462.00000m   15.2798u  462.0000m 
  463.00000m   15.2831u  463.0000m 
  464.00000m   15.2865u  464.0000m 
  465.00000m   15.2898u  465.0000m 
  466.00000m   15.2931u  466.0000m 
  467.00000m   15.2964u  467.0000m 
  468.00000m   15.2997u  468.0000m 
  469.00000m   15.3031u  469.0000m 
  470.00000m   15.3064u  470.0000m 
  471.00000m   15.3097u  471.0000m 
  472.00000m   15.3130u  472.0000m 
  473.00000m   15.3163u  473.0000m 
  474.00000m   15.3196u  474.0000m 
  475.00000m   15.3229u  475.0000m 
  476.00000m   15.3262u  476.0000m 
  477.00000m   15.3295u  477.0000m 
  478.00000m   15.3328u  478.0000m 
  479.00000m   15.3361u  479.0000m 
  480.00000m   15.3394u  480.0000m 
  481.00000m   15.3427u  481.0000m 
  482.00000m   15.3460u  482.0000m 
  483.00000m   15.3493u  483.0000m 
  484.00000m   15.3526u  484.0000m 
  485.00000m   15.3559u  485.0000m 
  486.00000m   15.3592u  486.0000m 
  487.00000m   15.3625u  487.0000m 
  488.00000m   15.3658u  488.0000m 
  489.00000m   15.3691u  489.0000m 
  490.00000m   15.3723u  490.0000m 
  491.00000m   15.3756u  491.0000m 
  492.00000m   15.3789u  492.0000m 
  493.00000m   15.3822u  493.0000m 
  494.00000m   15.3855u  494.0000m 
  495.00000m   15.3888u  495.0000m 
  496.00000m   15.3920u  496.0000m 
  497.00000m   15.3953u  497.0000m 
  498.00000m   15.3986u  498.0000m 
  499.00000m   15.4019u  499.0000m 
  500.00000m   15.4051u  500.0000m 
  501.00000m   15.4084u  501.0000m 
  502.00000m   15.4117u  502.0000m 
  503.00000m   15.4150u  503.0000m 
  504.00000m   15.4182u  504.0000m 
  505.00000m   15.4215u  505.0000m 
  506.00000m   15.4248u  506.0000m 
  507.00000m   15.4280u  507.0000m 
  508.00000m   15.4313u  508.0000m 
  509.00000m   15.4346u  509.0000m 
  510.00000m   15.4378u  510.0000m 
  511.00000m   15.4411u  511.0000m 
  512.00000m   15.4443u  512.0000m 
  513.00000m   15.4476u  513.0000m 
  514.00000m   15.4509u  514.0000m 
  515.00000m   15.4541u  515.0000m 
  516.00000m   15.4574u  516.0000m 
  517.00000m   15.4606u  517.0000m 
  518.00000m   15.4639u  518.0000m 
  519.00000m   15.4671u  519.0000m 
  520.00000m   15.4704u  520.0000m 
  521.00000m   15.4737u  521.0000m 
  522.00000m   15.4769u  522.0000m 
  523.00000m   15.4802u  523.0000m 
  524.00000m   15.4834u  524.0000m 
  525.00000m   15.4867u  525.0000m 
  526.00000m   15.4899u  526.0000m 
  527.00000m   15.4932u  527.0000m 
  528.00000m   15.4964u  528.0000m 
  529.00000m   15.4996u  529.0000m 
  530.00000m   15.5029u  530.0000m 
  531.00000m   15.5061u  531.0000m 
  532.00000m   15.5094u  532.0000m 
  533.00000m   15.5126u  533.0000m 
  534.00000m   15.5159u  534.0000m 
  535.00000m   15.5191u  535.0000m 
  536.00000m   15.5223u  536.0000m 
  537.00000m   15.5256u  537.0000m 
  538.00000m   15.5288u  538.0000m 
  539.00000m   15.5321u  539.0000m 
  540.00000m   15.5353u  540.0000m 
  541.00000m   15.5385u  541.0000m 
  542.00000m   15.5418u  542.0000m 
  543.00000m   15.5450u  543.0000m 
  544.00000m   15.5482u  544.0000m 
  545.00000m   15.5515u  545.0000m 
  546.00000m   15.5547u  546.0000m 
  547.00000m   15.5579u  547.0000m 
  548.00000m   15.5612u  548.0000m 
  549.00000m   15.5644u  549.0000m 
  550.00000m   15.5676u  550.0000m 
  551.00000m   15.5709u  551.0000m 
  552.00000m   15.5741u  552.0000m 
  553.00000m   15.5773u  553.0000m 
  554.00000m   15.5805u  554.0000m 
  555.00000m   15.5838u  555.0000m 
  556.00000m   15.5870u  556.0000m 
  557.00000m   15.5902u  557.0000m 
  558.00000m   15.5934u  558.0000m 
  559.00000m   15.5967u  559.0000m 
  560.00000m   15.5999u  560.0000m 
  561.00000m   15.6031u  561.0000m 
  562.00000m   15.6063u  562.0000m 
  563.00000m   15.6095u  563.0000m 
  564.00000m   15.6128u  564.0000m 
  565.00000m   15.6160u  565.0000m 
  566.00000m   15.6192u  566.0000m 
  567.00000m   15.6224u  567.0000m 
  568.00000m   15.6256u  568.0000m 
  569.00000m   15.6289u  569.0000m 
  570.00000m   15.6321u  570.0000m 
  571.00000m   15.6353u  571.0000m 
  572.00000m   15.6385u  572.0000m 
  573.00000m   15.6417u  573.0000m 
  574.00000m   15.6449u  574.0000m 
  575.00000m   15.6481u  575.0000m 
  576.00000m   15.6514u  576.0000m 
  577.00000m   15.6546u  577.0000m 
  578.00000m   15.6578u  578.0000m 
  579.00000m   15.6610u  579.0000m 
  580.00000m   15.6642u  580.0000m 
  581.00000m   15.6674u  581.0000m 
  582.00000m   15.6706u  582.0000m 
  583.00000m   15.6738u  583.0000m 
  584.00000m   15.6770u  584.0000m 
  585.00000m   15.6802u  585.0000m 
  586.00000m   15.6835u  586.0000m 
  587.00000m   15.6867u  587.0000m 
  588.00000m   15.6899u  588.0000m 
  589.00000m   15.6931u  589.0000m 
  590.00000m   15.6963u  590.0000m 
  591.00000m   15.6995u  591.0000m 
  592.00000m   15.7027u  592.0000m 
  593.00000m   15.7059u  593.0000m 
  594.00000m   15.7091u  594.0000m 
  595.00000m   15.7123u  595.0000m 
  596.00000m   15.7155u  596.0000m 
  597.00000m   15.7187u  597.0000m 
  598.00000m   15.7219u  598.0000m 
  599.00000m   15.7251u  599.0000m 
  600.00000m   15.7283u  600.0000m 
  601.00000m   15.7315u  601.0000m 
  602.00000m   15.7347u  602.0000m 
  603.00000m   15.7379u  603.0000m 
  604.00000m   15.7411u  604.0000m 
  605.00000m   15.7443u  605.0000m 
  606.00000m   15.7475u  606.0000m 
  607.00000m   15.7507u  607.0000m 
  608.00000m   15.7539u  608.0000m 
  609.00000m   15.7571u  609.0000m 
  610.00000m   15.7603u  610.0000m 
  611.00000m   15.7635u  611.0000m 
  612.00000m   15.7667u  612.0000m 
  613.00000m   15.7699u  613.0000m 
  614.00000m   15.7730u  614.0000m 
  615.00000m   15.7762u  615.0000m 
  616.00000m   15.7794u  616.0000m 
  617.00000m   15.7826u  617.0000m 
  618.00000m   15.7858u  618.0000m 
  619.00000m   15.7890u  619.0000m 
  620.00000m   15.7922u  620.0000m 
  621.00000m   15.7954u  621.0000m 
  622.00000m   15.7986u  622.0000m 
  623.00000m   15.8018u  623.0000m 
  624.00000m   15.8050u  624.0000m 
  625.00000m   15.8081u  625.0000m 
  626.00000m   15.8113u  626.0000m 
  627.00000m   15.8145u  627.0000m 
  628.00000m   15.8177u  628.0000m 
  629.00000m   15.8209u  629.0000m 
  630.00000m   15.8241u  630.0000m 
  631.00000m   15.8273u  631.0000m 
  632.00000m   15.8304u  632.0000m 
  633.00000m   15.8336u  633.0000m 
  634.00000m   15.8368u  634.0000m 
  635.00000m   15.8400u  635.0000m 
  636.00000m   15.8432u  636.0000m 
  637.00000m   15.8464u  637.0000m 
  638.00000m   15.8495u  638.0000m 
  639.00000m   15.8527u  639.0000m 
  640.00000m   15.8559u  640.0000m 
  641.00000m   15.8591u  641.0000m 
  642.00000m   15.8623u  642.0000m 
  643.00000m   15.8655u  643.0000m 
  644.00000m   15.8686u  644.0000m 
  645.00000m   15.8718u  645.0000m 
  646.00000m   15.8750u  646.0000m 
  647.00000m   15.8782u  647.0000m 
  648.00000m   15.8814u  648.0000m 
  649.00000m   15.8845u  649.0000m 
  650.00000m   15.8877u  650.0000m 
  651.00000m   15.8909u  651.0000m 
  652.00000m   15.8941u  652.0000m 
  653.00000m   15.8972u  653.0000m 
  654.00000m   15.9004u  654.0000m 
  655.00000m   15.9036u  655.0000m 
  656.00000m   15.9068u  656.0000m 
  657.00000m   15.9100u  657.0000m 
  658.00000m   15.9131u  658.0000m 
  659.00000m   15.9163u  659.0000m 
  660.00000m   15.9195u  660.0000m 
  661.00000m   15.9227u  661.0000m 
  662.00000m   15.9258u  662.0000m 
  663.00000m   15.9290u  663.0000m 
  664.00000m   15.9322u  664.0000m 
  665.00000m   15.9353u  665.0000m 
  666.00000m   15.9385u  666.0000m 
  667.00000m   15.9417u  667.0000m 
  668.00000m   15.9449u  668.0000m 
  669.00000m   15.9480u  669.0000m 
  670.00000m   15.9512u  670.0000m 
  671.00000m   15.9544u  671.0000m 
  672.00000m   15.9575u  672.0000m 
  673.00000m   15.9607u  673.0000m 
  674.00000m   15.9639u  674.0000m 
  675.00000m   15.9671u  675.0000m 
  676.00000m   15.9702u  676.0000m 
  677.00000m   15.9734u  677.0000m 
  678.00000m   15.9766u  678.0000m 
  679.00000m   15.9797u  679.0000m 
  680.00000m   15.9829u  680.0000m 
  681.00000m   15.9861u  681.0000m 
  682.00000m   15.9892u  682.0000m 
  683.00000m   15.9924u  683.0000m 
  684.00000m   15.9956u  684.0000m 
  685.00000m   15.9987u  685.0000m 
  686.00000m   16.0019u  686.0000m 
  687.00000m   16.0051u  687.0000m 
  688.00000m   16.0082u  688.0000m 
  689.00000m   16.0114u  689.0000m 
  690.00000m   16.0146u  690.0000m 
  691.00000m   16.0177u  691.0000m 
  692.00000m   16.0209u  692.0000m 
  693.00000m   16.0241u  693.0000m 
  694.00000m   16.0272u  694.0000m 
  695.00000m   16.0304u  695.0000m 
  696.00000m   16.0336u  696.0000m 
  697.00000m   16.0367u  697.0000m 
  698.00000m   16.0399u  698.0000m 
  699.00000m   16.0430u  699.0000m 
  700.00000m   16.0462u  700.0000m 
  701.00000m   16.0494u  701.0000m 
  702.00000m   16.0525u  702.0000m 
  703.00000m   16.0557u  703.0000m 
  704.00000m   16.0588u  704.0000m 
  705.00000m   16.0620u  705.0000m 
  706.00000m   16.0652u  706.0000m 
  707.00000m   16.0683u  707.0000m 
  708.00000m   16.0715u  708.0000m 
  709.00000m   16.0746u  709.0000m 
  710.00000m   16.0778u  710.0000m 
  711.00000m   16.0810u  711.0000m 
  712.00000m   16.0841u  712.0000m 
  713.00000m   16.0873u  713.0000m 
  714.00000m   16.0904u  714.0000m 
  715.00000m   16.0936u  715.0000m 
  716.00000m   16.0968u  716.0000m 
  717.00000m   16.0999u  717.0000m 
  718.00000m   16.1031u  718.0000m 
  719.00000m   16.1062u  719.0000m 
  720.00000m   16.1094u  720.0000m 
  721.00000m   16.1125u  721.0000m 
  722.00000m   16.1157u  722.0000m 
  723.00000m   16.1189u  723.0000m 
  724.00000m   16.1220u  724.0000m 
  725.00000m   16.1252u  725.0000m 
  726.00000m   16.1283u  726.0000m 
  727.00000m   16.1315u  727.0000m 
  728.00000m   16.1346u  728.0000m 
  729.00000m   16.1378u  729.0000m 
  730.00000m   16.1409u  730.0000m 
  731.00000m   16.1441u  731.0000m 
  732.00000m   16.1472u  732.0000m 
  733.00000m   16.1504u  733.0000m 
  734.00000m   16.1535u  734.0000m 
  735.00000m   16.1567u  735.0000m 
  736.00000m   16.1599u  736.0000m 
  737.00000m   16.1630u  737.0000m 
  738.00000m   16.1662u  738.0000m 
  739.00000m   16.1693u  739.0000m 
  740.00000m   16.1725u  740.0000m 
  741.00000m   16.1756u  741.0000m 
  742.00000m   16.1788u  742.0000m 
  743.00000m   16.1819u  743.0000m 
  744.00000m   16.1851u  744.0000m 
  745.00000m   16.1882u  745.0000m 
  746.00000m   16.1914u  746.0000m 
  747.00000m   16.1945u  747.0000m 
  748.00000m   16.1977u  748.0000m 
  749.00000m   16.2008u  749.0000m 
  750.00000m   16.2040u  750.0000m 
  751.00000m   16.2071u  751.0000m 
  752.00000m   16.2103u  752.0000m 
  753.00000m   16.2134u  753.0000m 
  754.00000m   16.2166u  754.0000m 
  755.00000m   16.2197u  755.0000m 
  756.00000m   16.2228u  756.0000m 
  757.00000m   16.2260u  757.0000m 
  758.00000m   16.2291u  758.0000m 
  759.00000m   16.2323u  759.0000m 
  760.00000m   16.2354u  760.0000m 
  761.00000m   16.2386u  761.0000m 
  762.00000m   16.2417u  762.0000m 
  763.00000m   16.2449u  763.0000m 
  764.00000m   16.2480u  764.0000m 
  765.00000m   16.2512u  765.0000m 
  766.00000m   16.2543u  766.0000m 
  767.00000m   16.2575u  767.0000m 
  768.00000m   16.2606u  768.0000m 
  769.00000m   16.2637u  769.0000m 
  770.00000m   16.2669u  770.0000m 
  771.00000m   16.2700u  771.0000m 
  772.00000m   16.2732u  772.0000m 
  773.00000m   16.2763u  773.0000m 
  774.00000m   16.2795u  774.0000m 
  775.00000m   16.2826u  775.0000m 
  776.00000m   16.2858u  776.0000m 
  777.00000m   16.2889u  777.0000m 
  778.00000m   16.2920u  778.0000m 
  779.00000m   16.2952u  779.0000m 
  780.00000m   16.2983u  780.0000m 
  781.00000m   16.3015u  781.0000m 
  782.00000m   16.3046u  782.0000m 
  783.00000m   16.3077u  783.0000m 
  784.00000m   16.3109u  784.0000m 
  785.00000m   16.3140u  785.0000m 
  786.00000m   16.3172u  786.0000m 
  787.00000m   16.3203u  787.0000m 
  788.00000m   16.3235u  788.0000m 
  789.00000m   16.3266u  789.0000m 
  790.00000m   16.3297u  790.0000m 
  791.00000m   16.3329u  791.0000m 
  792.00000m   16.3360u  792.0000m 
  793.00000m   16.3392u  793.0000m 
  794.00000m   16.3423u  794.0000m 
  795.00000m   16.3454u  795.0000m 
  796.00000m   16.3486u  796.0000m 
  797.00000m   16.3517u  797.0000m 
  798.00000m   16.3548u  798.0000m 
  799.00000m   16.3580u  799.0000m 
  800.00000m   16.3611u  800.0000m 
  801.00000m   16.3643u  801.0000m 
  802.00000m   16.3674u  802.0000m 
  803.00000m   16.3705u  803.0000m 
  804.00000m   16.3737u  804.0000m 
  805.00000m   16.3768u  805.0000m 
  806.00000m   16.3799u  806.0000m 
  807.00000m   16.3831u  807.0000m 
  808.00000m   16.3862u  808.0000m 
  809.00000m   16.3894u  809.0000m 
  810.00000m   16.3925u  810.0000m 
  811.00000m   16.3956u  811.0000m 
  812.00000m   16.3988u  812.0000m 
  813.00000m   16.4019u  813.0000m 
  814.00000m   16.4050u  814.0000m 
  815.00000m   16.4082u  815.0000m 
  816.00000m   16.4113u  816.0000m 
  817.00000m   16.4144u  817.0000m 
  818.00000m   16.4176u  818.0000m 
  819.00000m   16.4207u  819.0000m 
  820.00000m   16.4238u  820.0000m 
  821.00000m   16.4270u  821.0000m 
  822.00000m   16.4301u  822.0000m 
  823.00000m   16.4332u  823.0000m 
  824.00000m   16.4364u  824.0000m 
  825.00000m   16.4395u  825.0000m 
  826.00000m   16.4426u  826.0000m 
  827.00000m   16.4458u  827.0000m 
  828.00000m   16.4489u  828.0000m 
  829.00000m   16.4520u  829.0000m 
  830.00000m   16.4552u  830.0000m 
  831.00000m   16.4583u  831.0000m 
  832.00000m   16.4614u  832.0000m 
  833.00000m   16.4646u  833.0000m 
  834.00000m   16.4677u  834.0000m 
  835.00000m   16.4708u  835.0000m 
  836.00000m   16.4740u  836.0000m 
  837.00000m   16.4771u  837.0000m 
  838.00000m   16.4802u  838.0000m 
  839.00000m   16.4834u  839.0000m 
  840.00000m   16.4865u  840.0000m 
  841.00000m   16.4896u  841.0000m 
  842.00000m   16.4927u  842.0000m 
  843.00000m   16.4959u  843.0000m 
  844.00000m   16.4990u  844.0000m 
  845.00000m   16.5021u  845.0000m 
  846.00000m   16.5053u  846.0000m 
  847.00000m   16.5084u  847.0000m 
  848.00000m   16.5115u  848.0000m 
  849.00000m   16.5147u  849.0000m 
  850.00000m   16.5178u  850.0000m 
  851.00000m   16.5209u  851.0000m 
  852.00000m   16.5240u  852.0000m 
  853.00000m   16.5272u  853.0000m 
  854.00000m   16.5303u  854.0000m 
  855.00000m   16.5334u  855.0000m 
  856.00000m   16.5365u  856.0000m 
  857.00000m   16.5397u  857.0000m 
  858.00000m   16.5428u  858.0000m 
  859.00000m   16.5459u  859.0000m 
  860.00000m   16.5491u  860.0000m 
  861.00000m   16.5522u  861.0000m 
  862.00000m   16.5553u  862.0000m 
  863.00000m   16.5584u  863.0000m 
  864.00000m   16.5616u  864.0000m 
  865.00000m   16.5647u  865.0000m 
  866.00000m   16.5678u  866.0000m 
  867.00000m   16.5709u  867.0000m 
  868.00000m   16.5741u  868.0000m 
  869.00000m   16.5772u  869.0000m 
  870.00000m   16.5803u  870.0000m 
  871.00000m   16.5834u  871.0000m 
  872.00000m   16.5866u  872.0000m 
  873.00000m   16.5897u  873.0000m 
  874.00000m   16.5928u  874.0000m 
  875.00000m   16.5959u  875.0000m 
  876.00000m   16.5991u  876.0000m 
  877.00000m   16.6022u  877.0000m 
  878.00000m   16.6053u  878.0000m 
  879.00000m   16.6084u  879.0000m 
  880.00000m   16.6116u  880.0000m 
  881.00000m   16.6147u  881.0000m 
  882.00000m   16.6178u  882.0000m 
  883.00000m   16.6209u  883.0000m 
  884.00000m   16.6241u  884.0000m 
  885.00000m   16.6272u  885.0000m 
  886.00000m   16.6303u  886.0000m 
  887.00000m   16.6334u  887.0000m 
  888.00000m   16.6365u  888.0000m 
  889.00000m   16.6397u  889.0000m 
  890.00000m   16.6428u  890.0000m 
  891.00000m   16.6459u  891.0000m 
  892.00000m   16.6490u  892.0000m 
  893.00000m   16.6522u  893.0000m 
  894.00000m   16.6553u  894.0000m 
  895.00000m   16.6584u  895.0000m 
  896.00000m   16.6615u  896.0000m 
  897.00000m   16.6646u  897.0000m 
  898.00000m   16.6678u  898.0000m 
  899.00000m   16.6709u  899.0000m 
  900.00000m   16.6740u  900.0000m 
  901.00000m   16.6771u  901.0000m 
  902.00000m   16.6802u  902.0000m 
  903.00000m   16.6834u  903.0000m 
  904.00000m   16.6865u  904.0000m 
  905.00000m   16.6896u  905.0000m 
  906.00000m   16.6927u  906.0000m 
  907.00000m   16.6958u  907.0000m 
  908.00000m   16.6990u  908.0000m 
  909.00000m   16.7021u  909.0000m 
  910.00000m   16.7052u  910.0000m 
  911.00000m   16.7083u  911.0000m 
  912.00000m   16.7114u  912.0000m 
  913.00000m   16.7146u  913.0000m 
  914.00000m   16.7177u  914.0000m 
  915.00000m   16.7208u  915.0000m 
  916.00000m   16.7239u  916.0000m 
  917.00000m   16.7270u  917.0000m 
  918.00000m   16.7302u  918.0000m 
  919.00000m   16.7333u  919.0000m 
  920.00000m   16.7364u  920.0000m 
  921.00000m   16.7395u  921.0000m 
  922.00000m   16.7426u  922.0000m 
  923.00000m   16.7457u  923.0000m 
  924.00000m   16.7489u  924.0000m 
  925.00000m   16.7520u  925.0000m 
  926.00000m   16.7551u  926.0000m 
  927.00000m   16.7582u  927.0000m 
  928.00000m   16.7613u  928.0000m 
  929.00000m   16.7644u  929.0000m 
  930.00000m   16.7676u  930.0000m 
  931.00000m   16.7707u  931.0000m 
  932.00000m   16.7738u  932.0000m 
  933.00000m   16.7769u  933.0000m 
  934.00000m   16.7800u  934.0000m 
  935.00000m   16.7831u  935.0000m 
  936.00000m   16.7863u  936.0000m 
  937.00000m   16.7894u  937.0000m 
  938.00000m   16.7925u  938.0000m 
  939.00000m   16.7956u  939.0000m 
  940.00000m   16.7987u  940.0000m 
  941.00000m   16.8018u  941.0000m 
  942.00000m   16.8049u  942.0000m 
  943.00000m   16.8081u  943.0000m 
  944.00000m   16.8112u  944.0000m 
  945.00000m   16.8143u  945.0000m 
  946.00000m   16.8174u  946.0000m 
  947.00000m   16.8205u  947.0000m 
  948.00000m   16.8236u  948.0000m 
  949.00000m   16.8267u  949.0000m 
  950.00000m   16.8299u  950.0000m 
  951.00000m   16.8330u  951.0000m 
  952.00000m   16.8361u  952.0000m 
  953.00000m   16.8392u  953.0000m 
  954.00000m   16.8423u  954.0000m 
  955.00000m   16.8454u  955.0000m 
  956.00000m   16.8485u  956.0000m 
  957.00000m   16.8517u  957.0000m 
  958.00000m   16.8548u  958.0000m 
  959.00000m   16.8579u  959.0000m 
  960.00000m   16.8610u  960.0000m 
  961.00000m   16.8641u  961.0000m 
  962.00000m   16.8672u  962.0000m 
  963.00000m   16.8703u  963.0000m 
  964.00000m   16.8734u  964.0000m 
  965.00000m   16.8766u  965.0000m 
  966.00000m   16.8797u  966.0000m 
  967.00000m   16.8828u  967.0000m 
  968.00000m   16.8859u  968.0000m 
  969.00000m   16.8890u  969.0000m 
  970.00000m   16.8921u  970.0000m 
  971.00000m   16.8952u  971.0000m 
  972.00000m   16.8983u  972.0000m 
  973.00000m   16.9014u  973.0000m 
  974.00000m   16.9046u  974.0000m 
  975.00000m   16.9077u  975.0000m 
  976.00000m   16.9108u  976.0000m 
  977.00000m   16.9139u  977.0000m 
  978.00000m   16.9170u  978.0000m 
  979.00000m   16.9201u  979.0000m 
  980.00000m   16.9232u  980.0000m 
  981.00000m   16.9263u  981.0000m 
  982.00000m   16.9294u  982.0000m 
  983.00000m   16.9325u  983.0000m 
  984.00000m   16.9357u  984.0000m 
  985.00000m   16.9388u  985.0000m 
  986.00000m   16.9419u  986.0000m 
  987.00000m   16.9450u  987.0000m 
  988.00000m   16.9481u  988.0000m 
  989.00000m   16.9512u  989.0000m 
  990.00000m   16.9543u  990.0000m 
  991.00000m   16.9574u  991.0000m 
  992.00000m   16.9605u  992.0000m 
  993.00000m   16.9636u  993.0000m 
  994.00000m   16.9667u  994.0000m 
  995.00000m   16.9699u  995.0000m 
  996.00000m   16.9730u  996.0000m 
  997.00000m   16.9761u  997.0000m 
  998.00000m   16.9792u  998.0000m 
  999.00000m   16.9823u  999.0000m 
    1.00000    16.9854u    1.0000  
    1.00100    16.9885u    1.0010  
    1.00200    16.9916u    1.0020  
    1.00300    16.9947u    1.0030  
    1.00400    16.9978u    1.0040  
    1.00500    17.0009u    1.0050  
    1.00600    17.0040u    1.0060  
    1.00700    17.0071u    1.0070  
    1.00800    17.0103u    1.0080  
    1.00900    17.0134u    1.0090  
    1.01000    17.0165u    1.0100  
    1.01100    17.0196u    1.0110  
    1.01200    17.0227u    1.0120  
    1.01300    17.0258u    1.0130  
    1.01400    17.0289u    1.0140  
    1.01500    17.0320u    1.0150  
    1.01600    17.0351u    1.0160  
    1.01700    17.0382u    1.0170  
    1.01800    17.0413u    1.0180  
    1.01900    17.0444u    1.0190  
    1.02000    17.0475u    1.0200  
    1.02100    17.0506u    1.0210  
    1.02200    17.0537u    1.0220  
    1.02300    17.0568u    1.0230  
    1.02400    17.0600u    1.0240  
    1.02500    17.0631u    1.0250  
    1.02600    17.0662u    1.0260  
    1.02700    17.0693u    1.0270  
    1.02800    17.0724u    1.0280  
    1.02900    17.0755u    1.0290  
    1.03000    17.0786u    1.0300  
    1.03100    17.0817u    1.0310  
    1.03200    17.0848u    1.0320  
    1.03300    17.0879u    1.0330  
    1.03400    17.0910u    1.0340  
    1.03500    17.0941u    1.0350  
    1.03600    17.0972u    1.0360  
    1.03700    17.1003u    1.0370  
    1.03800    17.1034u    1.0380  
    1.03900    17.1065u    1.0390  
    1.04000    17.1096u    1.0400  
    1.04100    17.1127u    1.0410  
    1.04200    17.1158u    1.0420  
    1.04300    17.1189u    1.0430  
    1.04400    17.1220u    1.0440  
    1.04500    17.1251u    1.0450  
    1.04600    17.1282u    1.0460  
    1.04700    17.1314u    1.0470  
    1.04800    17.1345u    1.0480  
    1.04900    17.1376u    1.0490  
    1.05000    17.1407u    1.0500  
    1.05100    17.1438u    1.0510  
    1.05200    17.1469u    1.0520  
    1.05300    17.1500u    1.0530  
    1.05400    17.1531u    1.0540  
    1.05500    17.1562u    1.0550  
    1.05600    17.1593u    1.0560  
    1.05700    17.1624u    1.0570  
    1.05800    17.1655u    1.0580  
    1.05900    17.1686u    1.0590  
    1.06000    17.1717u    1.0600  
    1.06100    17.1748u    1.0610  
    1.06200    17.1779u    1.0620  
    1.06300    17.1810u    1.0630  
    1.06400    17.1841u    1.0640  
    1.06500    17.1872u    1.0650  
    1.06600    17.1903u    1.0660  
    1.06700    17.1934u    1.0670  
    1.06800    17.1965u    1.0680  
    1.06900    17.1996u    1.0690  
    1.07000    17.2027u    1.0700  
    1.07100    17.2058u    1.0710  
    1.07200    17.2089u    1.0720  
    1.07300    17.2120u    1.0730  
    1.07400    17.2151u    1.0740  
    1.07500    17.2182u    1.0750  
    1.07600    17.2213u    1.0760  
    1.07700    17.2244u    1.0770  
    1.07800    17.2275u    1.0780  
    1.07900    17.2306u    1.0790  
    1.08000    17.2337u    1.0800  
    1.08100    17.2368u    1.0810  
    1.08200    17.2399u    1.0820  
    1.08300    17.2430u    1.0830  
    1.08400    17.2461u    1.0840  
    1.08500    17.2492u    1.0850  
    1.08600    17.2523u    1.0860  
    1.08700    17.2554u    1.0870  
    1.08800    17.2585u    1.0880  
    1.08900    17.2616u    1.0890  
    1.09000    17.2647u    1.0900  
    1.09100    17.2678u    1.0910  
    1.09200    17.2709u    1.0920  
    1.09300    17.2740u    1.0930  
    1.09400    17.2771u    1.0940  
    1.09500    17.2802u    1.0950  
    1.09600    17.2833u    1.0960  
    1.09700    17.2864u    1.0970  
    1.09800    17.2895u    1.0980  
    1.09900    17.2926u    1.0990  
    1.10000    17.2957u    1.1000  
    1.10100    17.2988u    1.1010  
    1.10200    17.3019u    1.1020  
    1.10300    17.3050u    1.1030  
    1.10400    17.3081u    1.1040  
    1.10500    17.3112u    1.1050  
    1.10600    17.3143u    1.1060  
    1.10700    17.3174u    1.1070  
    1.10800    17.3205u    1.1080  
    1.10900    17.3236u    1.1090  
    1.11000    17.3267u    1.1100  
    1.11100    17.3298u    1.1110  
    1.11200    17.3329u    1.1120  
    1.11300    17.3360u    1.1130  
    1.11400    17.3391u    1.1140  
    1.11500    17.3422u    1.1150  
    1.11600    17.3453u    1.1160  
    1.11700    17.3484u    1.1170  
    1.11800    17.3515u    1.1180  
    1.11900    17.3546u    1.1190  
    1.12000    17.3577u    1.1200  
    1.12100    17.3608u    1.1210  
    1.12200    17.3639u    1.1220  
    1.12300    17.3670u    1.1230  
    1.12400    17.3701u    1.1240  
    1.12500    17.3732u    1.1250  
    1.12600    17.3763u    1.1260  
    1.12700    17.3794u    1.1270  
    1.12800    17.3825u    1.1280  
    1.12900    17.3856u    1.1290  
    1.13000    17.3887u    1.1300  
    1.13100    17.3918u    1.1310  
    1.13200    17.3949u    1.1320  
    1.13300    17.3980u    1.1330  
    1.13400    17.4011u    1.1340  
    1.13500    17.4042u    1.1350  
    1.13600    17.4073u    1.1360  
    1.13700    17.4104u    1.1370  
    1.13800    17.4135u    1.1380  
    1.13900    17.4166u    1.1390  
    1.14000    17.4197u    1.1400  
    1.14100    17.4228u    1.1410  
    1.14200    17.4259u    1.1420  
    1.14300    17.4290u    1.1430  
    1.14400    17.4321u    1.1440  
    1.14500    17.4352u    1.1450  
    1.14600    17.4383u    1.1460  
    1.14700    17.4414u    1.1470  
    1.14800    17.4445u    1.1480  
    1.14900    17.4475u    1.1490  
    1.15000    17.4506u    1.1500  
    1.15100    17.4537u    1.1510  
    1.15200    17.4568u    1.1520  
    1.15300    17.4599u    1.1530  
    1.15400    17.4630u    1.1540  
    1.15500    17.4661u    1.1550  
    1.15600    17.4692u    1.1560  
    1.15700    17.4723u    1.1570  
    1.15800    17.4754u    1.1580  
    1.15900    17.4785u    1.1590  
    1.16000    17.4816u    1.1600  
    1.16100    17.4847u    1.1610  
    1.16200    17.4878u    1.1620  
    1.16300    17.4909u    1.1630  
    1.16400    17.4940u    1.1640  
    1.16500    17.4971u    1.1650  
    1.16600    17.5002u    1.1660  
    1.16700    17.5033u    1.1670  
    1.16800    17.5064u    1.1680  
    1.16900    17.5095u    1.1690  
    1.17000    17.5126u    1.1700  
    1.17100    17.5157u    1.1710  
    1.17200    17.5188u    1.1720  
    1.17300    17.5219u    1.1730  
    1.17400    17.5250u    1.1740  
    1.17500    17.5281u    1.1750  
    1.17600    17.5312u    1.1760  
    1.17700    17.5343u    1.1770  
    1.17800    17.5374u    1.1780  
    1.17900    17.5405u    1.1790  
    1.18000    17.5436u    1.1800  
    1.18100    17.5467u    1.1810  
    1.18200    17.5498u    1.1820  
    1.18300    17.5529u    1.1830  
    1.18400    17.5559u    1.1840  
    1.18500    17.5590u    1.1850  
    1.18600    17.5621u    1.1860  
    1.18700    17.5652u    1.1870  
    1.18800    17.5683u    1.1880  
    1.18900    17.5714u    1.1890  
    1.19000    17.5745u    1.1900  
    1.19100    17.5776u    1.1910  
    1.19200    17.5807u    1.1920  
    1.19300    17.5838u    1.1930  
    1.19400    17.5869u    1.1940  
    1.19500    17.5900u    1.1950  
    1.19600    17.5931u    1.1960  
    1.19700    17.5962u    1.1970  
    1.19800    17.5993u    1.1980  
    1.19900    17.6024u    1.1990  
    1.20000    17.6055u    1.2000  
    1.20100    17.6086u    1.2010  
    1.20200    17.6117u    1.2020  
    1.20300    17.6148u    1.2030  
    1.20400    17.6179u    1.2040  
    1.20500    17.6210u    1.2050  
    1.20600    17.6241u    1.2060  
    1.20700    17.6272u    1.2070  
    1.20800    17.6303u    1.2080  
    1.20900    17.6334u    1.2090  
    1.21000    17.6365u    1.2100  
    1.21100    17.6396u    1.2110  
    1.21200    17.6427u    1.2120  
    1.21300    17.6458u    1.2130  
    1.21400    17.6489u    1.2140  
    1.21500    17.6520u    1.2150  
    1.21600    17.6550u    1.2160  
    1.21700    17.6581u    1.2170  
    1.21800    17.6612u    1.2180  
    1.21900    17.6643u    1.2190  
    1.22000    17.6674u    1.2200  
    1.22100    17.6705u    1.2210  
    1.22200    17.6736u    1.2220  
    1.22300    17.6767u    1.2230  
    1.22400    17.6798u    1.2240  
    1.22500    17.6829u    1.2250  
    1.22600    17.6860u    1.2260  
    1.22700    17.6891u    1.2270  
    1.22800    17.6922u    1.2280  
    1.22900    17.6953u    1.2290  
    1.23000    17.6984u    1.2300  
    1.23100    17.7015u    1.2310  
    1.23200    17.7046u    1.2320  
    1.23300    17.7077u    1.2330  
    1.23400    17.7108u    1.2340  
    1.23500    17.7139u    1.2350  
    1.23600    17.7170u    1.2360  
    1.23700    17.7201u    1.2370  
    1.23800    17.7232u    1.2380  
    1.23900    17.7263u    1.2390  
    1.24000    17.7294u    1.2400  
    1.24100    17.7325u    1.2410  
    1.24200    17.7356u    1.2420  
    1.24300    17.7387u    1.2430  
    1.24400    17.7418u    1.2440  
    1.24500    17.7449u    1.2450  
    1.24600    17.7480u    1.2460  
    1.24700    17.7511u    1.2470  
    1.24800    17.7542u    1.2480  
    1.24900    17.7573u    1.2490  
    1.25000    17.7604u    1.2500  
    1.25100    17.7635u    1.2510  
    1.25200    17.7666u    1.2520  
    1.25300    17.7697u    1.2530  
    1.25400    17.7727u    1.2540  
    1.25500    17.7758u    1.2550  
    1.25600    17.7789u    1.2560  
    1.25700    17.7820u    1.2570  
    1.25800    17.7851u    1.2580  
    1.25900    17.7882u    1.2590  
    1.26000    17.7913u    1.2600  
    1.26100    17.7944u    1.2610  
    1.26200    17.7975u    1.2620  
    1.26300    17.8006u    1.2630  
    1.26400    17.8037u    1.2640  
    1.26500    17.8068u    1.2650  
    1.26600    17.8099u    1.2660  
    1.26700    17.8130u    1.2670  
    1.26800    17.8161u    1.2680  
    1.26900    17.8192u    1.2690  
    1.27000    17.8223u    1.2700  
    1.27100    17.8254u    1.2710  
    1.27200    17.8285u    1.2720  
    1.27300    17.8316u    1.2730  
    1.27400    17.8347u    1.2740  
    1.27500    17.8378u    1.2750  
    1.27600    17.8409u    1.2760  
    1.27700    17.8440u    1.2770  
    1.27800    17.8471u    1.2780  
    1.27900    17.8502u    1.2790  
    1.28000    17.8533u    1.2800  
    1.28100    17.8564u    1.2810  
    1.28200    17.8595u    1.2820  
    1.28300    17.8626u    1.2830  
    1.28400    17.8657u    1.2840  
    1.28500    17.8688u    1.2850  
    1.28600    17.8719u    1.2860  
    1.28700    17.8750u    1.2870  
    1.28800    17.8781u    1.2880  
    1.28900    17.8812u    1.2890  
    1.29000    17.8843u    1.2900  
    1.29100    17.8874u    1.2910  
    1.29200    17.8905u    1.2920  
    1.29300    17.8936u    1.2930  
    1.29400    17.8967u    1.2940  
    1.29500    17.8998u    1.2950  
    1.29600    17.9029u    1.2960  
    1.29700    17.9060u    1.2970  
    1.29800    17.9091u    1.2980  
    1.29900    17.9122u    1.2990  
    1.30000    17.9153u    1.3000  
    1.30100    17.9184u    1.3010  
    1.30200    17.9215u    1.3020  
    1.30300    17.9246u    1.3030  
    1.30400    17.9277u    1.3040  
    1.30500    17.9308u    1.3050  
    1.30600    17.9339u    1.3060  
    1.30700    17.9370u    1.3070  
    1.30800    17.9401u    1.3080  
    1.30900    17.9432u    1.3090  
    1.31000    17.9463u    1.3100  
    1.31100    17.9494u    1.3110  
    1.31200    17.9525u    1.3120  
    1.31300    17.9556u    1.3130  
    1.31400    17.9587u    1.3140  
    1.31500    17.9618u    1.3150  
    1.31600    17.9649u    1.3160  
    1.31700    17.9680u    1.3170  
    1.31800    17.9711u    1.3180  
    1.31900    17.9742u    1.3190  
    1.32000    17.9773u    1.3200  
    1.32100    17.9804u    1.3210  
    1.32200    17.9835u    1.3220  
    1.32300    17.9866u    1.3230  
    1.32400    17.9897u    1.3240  
    1.32500    17.9929u    1.3250  
    1.32600    17.9960u    1.3260  
    1.32700    17.9991u    1.3270  
    1.32800    18.0022u    1.3280  
    1.32900    18.0053u    1.3290  
    1.33000    18.0084u    1.3300  
    1.33100    18.0115u    1.3310  
    1.33200    18.0146u    1.3320  
    1.33300    18.0177u    1.3330  
    1.33400    18.0208u    1.3340  
    1.33500    18.0239u    1.3350  
    1.33600    18.0270u    1.3360  
    1.33700    18.0301u    1.3370  
    1.33800    18.0332u    1.3380  
    1.33900    18.0363u    1.3390  
    1.34000    18.0394u    1.3400  
    1.34100    18.0425u    1.3410  
    1.34200    18.0456u    1.3420  
    1.34300    18.0487u    1.3430  
    1.34400    18.0518u    1.3440  
    1.34500    18.0549u    1.3450  
    1.34600    18.0580u    1.3460  
    1.34700    18.0611u    1.3470  
    1.34800    18.0642u    1.3480  
    1.34900    18.0673u    1.3490  
    1.35000    18.0705u    1.3500  
    1.35100    18.0736u    1.3510  
    1.35200    18.0767u    1.3520  
    1.35300    18.0798u    1.3530  
    1.35400    18.0829u    1.3540  
    1.35500    18.0860u    1.3550  
    1.35600    18.0891u    1.3560  
    1.35700    18.0922u    1.3570  
    1.35800    18.0953u    1.3580  
    1.35900    18.0984u    1.3590  
    1.36000    18.1015u    1.3600  
    1.36100    18.1046u    1.3610  
    1.36200    18.1077u    1.3620  
    1.36300    18.1108u    1.3630  
    1.36400    18.1139u    1.3640  
    1.36500    18.1170u    1.3650  
    1.36600    18.1202u    1.3660  
    1.36700    18.1233u    1.3670  
    1.36800    18.1264u    1.3680  
    1.36900    18.1295u    1.3690  
    1.37000    18.1326u    1.3700  
    1.37100    18.1357u    1.3710  
    1.37200    18.1388u    1.3720  
    1.37300    18.1419u    1.3730  
    1.37400    18.1450u    1.3740  
    1.37500    18.1481u    1.3750  
    1.37600    18.1512u    1.3760  
    1.37700    18.1543u    1.3770  
    1.37800    18.1575u    1.3780  
    1.37900    18.1606u    1.3790  
    1.38000    18.1637u    1.3800  
    1.38100    18.1668u    1.3810  
    1.38200    18.1699u    1.3820  
    1.38300    18.1730u    1.3830  
    1.38400    18.1761u    1.3840  
    1.38500    18.1792u    1.3850  
    1.38600    18.1823u    1.3860  
    1.38700    18.1854u    1.3870  
    1.38800    18.1886u    1.3880  
    1.38900    18.1917u    1.3890  
    1.39000    18.1948u    1.3900  
    1.39100    18.1979u    1.3910  
    1.39200    18.2010u    1.3920  
    1.39300    18.2041u    1.3930  
    1.39400    18.2072u    1.3940  
    1.39500    18.2103u    1.3950  
    1.39600    18.2134u    1.3960  
    1.39700    18.2166u    1.3970  
    1.39800    18.2197u    1.3980  
    1.39900    18.2228u    1.3990  
    1.40000    18.2259u    1.4000  
    1.40100    18.2290u    1.4010  
    1.40200    18.2321u    1.4020  
    1.40300    18.2352u    1.4030  
    1.40400    18.2384u    1.4040  
    1.40500    18.2415u    1.4050  
    1.40600    18.2446u    1.4060  
    1.40700    18.2477u    1.4070  
    1.40800    18.2508u    1.4080  
    1.40900    18.2539u    1.4090  
    1.41000    18.2570u    1.4100  
    1.41100    18.2601u    1.4110  
    1.41200    18.2633u    1.4120  
    1.41300    18.2664u    1.4130  
    1.41400    18.2695u    1.4140  
    1.41500    18.2726u    1.4150  
    1.41600    18.2757u    1.4160  
    1.41700    18.2788u    1.4170  
    1.41800    18.2820u    1.4180  
    1.41900    18.2851u    1.4190  
    1.42000    18.2882u    1.4200  
    1.42100    18.2913u    1.4210  
    1.42200    18.2944u    1.4220  
    1.42300    18.2975u    1.4230  
    1.42400    18.3007u    1.4240  
    1.42500    18.3038u    1.4250  
    1.42600    18.3069u    1.4260  
    1.42700    18.3100u    1.4270  
    1.42800    18.3131u    1.4280  
    1.42900    18.3162u    1.4290  
    1.43000    18.3194u    1.4300  
    1.43100    18.3225u    1.4310  
    1.43200    18.3256u    1.4320  
    1.43300    18.3287u    1.4330  
    1.43400    18.3318u    1.4340  
    1.43500    18.3350u    1.4350  
    1.43600    18.3381u    1.4360  
    1.43700    18.3412u    1.4370  
    1.43800    18.3443u    1.4380  
    1.43900    18.3474u    1.4390  
    1.44000    18.3506u    1.4400  
    1.44100    18.3537u    1.4410  
    1.44200    18.3568u    1.4420  
    1.44300    18.3599u    1.4430  
    1.44400    18.3630u    1.4440  
    1.44500    18.3662u    1.4450  
    1.44600    18.3693u    1.4460  
    1.44700    18.3724u    1.4470  
    1.44800    18.3755u    1.4480  
    1.44900    18.3787u    1.4490  
    1.45000    18.3818u    1.4500  
    1.45100    18.3849u    1.4510  
    1.45200    18.3880u    1.4520  
    1.45300    18.3912u    1.4530  
    1.45400    18.3943u    1.4540  
    1.45500    18.3974u    1.4550  
    1.45600    18.4005u    1.4560  
    1.45700    18.4036u    1.4570  
    1.45800    18.4068u    1.4580  
    1.45900    18.4099u    1.4590  
    1.46000    18.4130u    1.4600  
    1.46100    18.4162u    1.4610  
    1.46200    18.4193u    1.4620  
    1.46300    18.4224u    1.4630  
    1.46400    18.4255u    1.4640  
    1.46500    18.4287u    1.4650  
    1.46600    18.4318u    1.4660  
    1.46700    18.4349u    1.4670  
    1.46800    18.4380u    1.4680  
    1.46900    18.4412u    1.4690  
    1.47000    18.4443u    1.4700  
    1.47100    18.4474u    1.4710  
    1.47200    18.4506u    1.4720  
    1.47300    18.4537u    1.4730  
    1.47400    18.4568u    1.4740  
    1.47500    18.4599u    1.4750  
    1.47600    18.4631u    1.4760  
    1.47700    18.4662u    1.4770  
    1.47800    18.4693u    1.4780  
    1.47900    18.4725u    1.4790  
    1.48000    18.4756u    1.4800  
    1.48100    18.4787u    1.4810  
    1.48200    18.4819u    1.4820  
    1.48300    18.4850u    1.4830  
    1.48400    18.4881u    1.4840  
    1.48500    18.4913u    1.4850  
    1.48600    18.4944u    1.4860  
    1.48700    18.4975u    1.4870  
    1.48800    18.5007u    1.4880  
    1.48900    18.5038u    1.4890  
    1.49000    18.5069u    1.4900  
    1.49100    18.5101u    1.4910  
    1.49200    18.5132u    1.4920  
    1.49300    18.5163u    1.4930  
    1.49400    18.5195u    1.4940  
    1.49500    18.5226u    1.4950  
    1.49600    18.5257u    1.4960  
    1.49700    18.5289u    1.4970  
    1.49800    18.5320u    1.4980  
    1.49900    18.5351u    1.4990  
    1.50000    18.5383u    1.5000  
    1.50100    18.5414u    1.5010  
    1.50200    18.5446u    1.5020  
    1.50300    18.5477u    1.5030  
    1.50400    18.5508u    1.5040  
    1.50500    18.5540u    1.5050  
    1.50600    18.5571u    1.5060  
    1.50700    18.5603u    1.5070  
    1.50800    18.5634u    1.5080  
    1.50900    18.5665u    1.5090  
    1.51000    18.5697u    1.5100  
    1.51100    18.5728u    1.5110  
    1.51200    18.5760u    1.5120  
    1.51300    18.5791u    1.5130  
    1.51400    18.5822u    1.5140  
    1.51500    18.5854u    1.5150  
    1.51600    18.5885u    1.5160  
    1.51700    18.5917u    1.5170  
    1.51800    18.5948u    1.5180  
    1.51900    18.5980u    1.5190  
    1.52000    18.6011u    1.5200  
    1.52100    18.6043u    1.5210  
    1.52200    18.6074u    1.5220  
    1.52300    18.6105u    1.5230  
    1.52400    18.6137u    1.5240  
    1.52500    18.6168u    1.5250  
    1.52600    18.6200u    1.5260  
    1.52700    18.6231u    1.5270  
    1.52800    18.6263u    1.5280  
    1.52900    18.6294u    1.5290  
    1.53000    18.6326u    1.5300  
    1.53100    18.6357u    1.5310  
    1.53200    18.6389u    1.5320  
    1.53300    18.6420u    1.5330  
    1.53400    18.6452u    1.5340  
    1.53500    18.6483u    1.5350  
    1.53600    18.6515u    1.5360  
    1.53700    18.6546u    1.5370  
    1.53800    18.6578u    1.5380  
    1.53900    18.6610u    1.5390  
    1.54000    18.6641u    1.5400  
    1.54100    18.6673u    1.5410  
    1.54200    18.6704u    1.5420  
    1.54300    18.6736u    1.5430  
    1.54400    18.6767u    1.5440  
    1.54500    18.6799u    1.5450  
    1.54600    18.6830u    1.5460  
    1.54700    18.6862u    1.5470  
    1.54800    18.6894u    1.5480  
    1.54900    18.6925u    1.5490  
    1.55000    18.6957u    1.5500  
    1.55100    18.6988u    1.5510  
    1.55200    18.7020u    1.5520  
    1.55300    18.7052u    1.5530  
    1.55400    18.7083u    1.5540  
    1.55500    18.7115u    1.5550  
    1.55600    18.7146u    1.5560  
    1.55700    18.7178u    1.5570  
    1.55800    18.7210u    1.5580  
    1.55900    18.7241u    1.5590  
    1.56000    18.7273u    1.5600  
    1.56100    18.7305u    1.5610  
    1.56200    18.7336u    1.5620  
    1.56300    18.7368u    1.5630  
    1.56400    18.7400u    1.5640  
    1.56500    18.7431u    1.5650  
    1.56600    18.7463u    1.5660  
    1.56700    18.7495u    1.5670  
    1.56800    18.7526u    1.5680  
    1.56900    18.7558u    1.5690  
    1.57000    18.7590u    1.5700  
    1.57100    18.7621u    1.5710  
    1.57200    18.7653u    1.5720  
    1.57300    18.7685u    1.5730  
    1.57400    18.7716u    1.5740  
    1.57500    18.7748u    1.5750  
    1.57600    18.7780u    1.5760  
    1.57700    18.7812u    1.5770  
    1.57800    18.7843u    1.5780  
    1.57900    18.7875u    1.5790  
    1.58000    18.7907u    1.5800  
    1.58100    18.7939u    1.5810  
    1.58200    18.7971u    1.5820  
    1.58300    18.8002u    1.5830  
    1.58400    18.8034u    1.5840  
    1.58500    18.8066u    1.5850  
    1.58600    18.8098u    1.5860  
    1.58700    18.8130u    1.5870  
    1.58800    18.8161u    1.5880  
    1.58900    18.8193u    1.5890  
    1.59000    18.8225u    1.5900  
    1.59100    18.8257u    1.5910  
    1.59200    18.8289u    1.5920  
    1.59300    18.8321u    1.5930  
    1.59400    18.8352u    1.5940  
    1.59500    18.8384u    1.5950  
    1.59600    18.8416u    1.5960  
    1.59700    18.8448u    1.5970  
    1.59800    18.8480u    1.5980  
    1.59900    18.8512u    1.5990  
    1.60000    18.8544u    1.6000  
    1.60100    18.8576u    1.6010  
    1.60200    18.8608u    1.6020  
    1.60300    18.8640u    1.6030  
    1.60400    18.8671u    1.6040  
    1.60500    18.8703u    1.6050  
    1.60600    18.8735u    1.6060  
    1.60700    18.8767u    1.6070  
    1.60800    18.8799u    1.6080  
    1.60900    18.8831u    1.6090  
    1.61000    18.8863u    1.6100  
    1.61100    18.8895u    1.6110  
    1.61200    18.8927u    1.6120  
    1.61300    18.8959u    1.6130  
    1.61400    18.8991u    1.6140  
    1.61500    18.9023u    1.6150  
    1.61600    18.9055u    1.6160  
    1.61700    18.9087u    1.6170  
    1.61800    18.9120u    1.6180  
    1.61900    18.9152u    1.6190  
    1.62000    18.9184u    1.6200  
    1.62100    18.9216u    1.6210  
    1.62200    18.9248u    1.6220  
    1.62300    18.9280u    1.6230  
    1.62400    18.9312u    1.6240  
    1.62500    18.9344u    1.6250  
    1.62600    18.9376u    1.6260  
    1.62700    18.9409u    1.6270  
    1.62800    18.9441u    1.6280  
    1.62900    18.9473u    1.6290  
    1.63000    18.9505u    1.6300  
    1.63100    18.9537u    1.6310  
    1.63200    18.9569u    1.6320  
    1.63300    18.9602u    1.6330  
    1.63400    18.9634u    1.6340  
    1.63500    18.9666u    1.6350  
    1.63600    18.9698u    1.6360  
    1.63700    18.9731u    1.6370  
    1.63800    18.9763u    1.6380  
    1.63900    18.9795u    1.6390  
    1.64000    18.9827u    1.6400  
    1.64100    18.9860u    1.6410  
    1.64200    18.9892u    1.6420  
    1.64300    18.9924u    1.6430  
    1.64400    18.9957u    1.6440  
    1.64500    18.9989u    1.6450  
    1.64600    19.0021u    1.6460  
    1.64700    19.0054u    1.6470  
    1.64800    19.0086u    1.6480  
    1.64900    19.0119u    1.6490  
    1.65000    19.0151u    1.6500  
    1.65100    19.0183u    1.6510  
    1.65200    19.0216u    1.6520  
    1.65300    19.0248u    1.6530  
    1.65400    19.0281u    1.6540  
    1.65500    19.0313u    1.6550  
    1.65600    19.0346u    1.6560  
    1.65700    19.0378u    1.6570  
    1.65800    19.0411u    1.6580  
    1.65900    19.0443u    1.6590  
    1.66000    19.0476u    1.6600  
    1.66100    19.0508u    1.6610  
    1.66200    19.0541u    1.6620  
    1.66300    19.0574u    1.6630  
    1.66400    19.0606u    1.6640  
    1.66500    19.0639u    1.6650  
    1.66600    19.0671u    1.6660  
    1.66700    19.0704u    1.6670  
    1.66800    19.0737u    1.6680  
    1.66900    19.0769u    1.6690  
    1.67000    19.0802u    1.6700  
    1.67100    19.0835u    1.6710  
    1.67200    19.0868u    1.6720  
    1.67300    19.0900u    1.6730  
    1.67400    19.0933u    1.6740  
    1.67500    19.0966u    1.6750  
    1.67600    19.0999u    1.6760  
    1.67700    19.1031u    1.6770  
    1.67800    19.1064u    1.6780  
    1.67900    19.1097u    1.6790  
    1.68000    19.1130u    1.6800  
    1.68100    19.1163u    1.6810  
    1.68200    19.1196u    1.6820  
    1.68300    19.1228u    1.6830  
    1.68400    19.1261u    1.6840  
    1.68500    19.1294u    1.6850  
    1.68600    19.1327u    1.6860  
    1.68700    19.1360u    1.6870  
    1.68800    19.1393u    1.6880  
    1.68900    19.1426u    1.6890  
    1.69000    19.1459u    1.6900  
    1.69100    19.1492u    1.6910  
    1.69200    19.1525u    1.6920  
    1.69300    19.1558u    1.6930  
    1.69400    19.1592u    1.6940  
    1.69500    19.1625u    1.6950  
    1.69600    19.1658u    1.6960  
    1.69700    19.1691u    1.6970  
    1.69800    19.1724u    1.6980  
    1.69900    19.1757u    1.6990  
    1.70000    19.1791u    1.7000  
    1.70100    19.1824u    1.7010  
    1.70200    19.1857u    1.7020  
    1.70300    19.1890u    1.7030  
    1.70400    19.1924u    1.7040  
    1.70500    19.1957u    1.7050  
    1.70600    19.1990u    1.7060  
    1.70700    19.2024u    1.7070  
    1.70800    19.2057u    1.7080  
    1.70900    19.2090u    1.7090  
    1.71000    19.2124u    1.7100  
    1.71100    19.2157u    1.7110  
    1.71200    19.2191u    1.7120  
    1.71300    19.2224u    1.7130  
    1.71400    19.2258u    1.7140  
    1.71500    19.2291u    1.7150  
    1.71600    19.2325u    1.7160  
    1.71700    19.2359u    1.7170  
    1.71800    19.2392u    1.7180  
    1.71900    19.2426u    1.7190  
    1.72000    19.2459u    1.7200  
    1.72100    19.2493u    1.7210  
    1.72200    19.2527u    1.7220  
    1.72300    19.2561u    1.7230  
    1.72400    19.2594u    1.7240  
    1.72500    19.2628u    1.7250  
    1.72600    19.2662u    1.7260  
    1.72700    19.2696u    1.7270  
    1.72800    19.2730u    1.7280  
    1.72900    19.2764u    1.7290  
    1.73000    19.2798u    1.7300  
    1.73100    19.2832u    1.7310  
    1.73200    19.2866u    1.7320  
    1.73300    19.2900u    1.7330  
    1.73400    19.2934u    1.7340  
    1.73500    19.2968u    1.7350  
    1.73600    19.3002u    1.7360  
    1.73700    19.3036u    1.7370  
    1.73800    19.3070u    1.7380  
    1.73900    19.3104u    1.7390  
    1.74000    19.3138u    1.7400  
    1.74100    19.3173u    1.7410  
    1.74200    19.3207u    1.7420  
    1.74300    19.3241u    1.7430  
    1.74400    19.3276u    1.7440  
    1.74500    19.3310u    1.7450  
    1.74600    19.3344u    1.7460  
    1.74700    19.3379u    1.7470  
    1.74800    19.3413u    1.7480  
    1.74900    19.3448u    1.7490  
    1.75000    19.3482u    1.7500  
    1.75100    19.3517u    1.7510  
    1.75200    19.3552u    1.7520  
    1.75300    19.3586u    1.7530  
    1.75400    19.3621u    1.7540  
    1.75500    19.3656u    1.7550  
    1.75600    19.3690u    1.7560  
    1.75700    19.3725u    1.7570  
    1.75800    19.3760u    1.7580  
    1.75900    19.3795u    1.7590  
    1.76000    19.3830u    1.7600  
    1.76100    19.3865u    1.7610  
    1.76200    19.3900u    1.7620  
    1.76300    19.3935u    1.7630  
    1.76400    19.3970u    1.7640  
    1.76500    19.4005u    1.7650  
    1.76600    19.4040u    1.7660  
    1.76700    19.4075u    1.7670  
    1.76800    19.4110u    1.7680  
    1.76900    19.4146u    1.7690  
    1.77000    19.4181u    1.7700  
    1.77100    19.4216u    1.7710  
    1.77200    19.4252u    1.7720  
    1.77300    19.4287u    1.7730  
    1.77400    19.4322u    1.7740  
    1.77500    19.4358u    1.7750  
    1.77600    19.4393u    1.7760  
    1.77700    19.4429u    1.7770  
    1.77800    19.4465u    1.7780  
    1.77900    19.4500u    1.7790  
    1.78000    19.4536u    1.7800  
    1.78100    19.4572u    1.7810  
    1.78200    19.4608u    1.7820  
    1.78300    19.4644u    1.7830  
    1.78400    19.4680u    1.7840  
    1.78500    19.4716u    1.7850  
    1.78600    19.4752u    1.7860  
    1.78700    19.4788u    1.7870  
    1.78800    19.4824u    1.7880  
    1.78900    19.4860u    1.7890  
    1.79000    19.4896u    1.7900  
    1.79100    19.4933u    1.7910  
    1.79200    19.4969u    1.7920  
    1.79300    19.5005u    1.7930  
    1.79400    19.5042u    1.7940  
    1.79500    19.5078u    1.7950  
    1.79600    19.5115u    1.7960  
    1.79700    19.5151u    1.7970  
    1.79800    19.5188u    1.7980  
    1.79900    19.5225u    1.7990  
    1.80000    19.5262u    1.8000  
    1.80100    19.5298u    1.8010  
    1.80200    19.5335u    1.8020  
    1.80300    19.5372u    1.8030  
    1.80400    19.5409u    1.8040  
    1.80500    19.5446u    1.8050  
    1.80600    19.5484u    1.8060  
    1.80700    19.5521u    1.8070  
    1.80800    19.5558u    1.8080  
    1.80900    19.5595u    1.8090  
    1.81000    19.5633u    1.8100  
    1.81100    19.5670u    1.8110  
    1.81200    19.5708u    1.8120  
    1.81300    19.5745u    1.8130  
    1.81400    19.5783u    1.8140  
    1.81500    19.5821u    1.8150  
    1.81600    19.5859u    1.8160  
    1.81700    19.5897u    1.8170  
    1.81800    19.5934u    1.8180  
    1.81900    19.5973u    1.8190  
    1.82000    19.6011u    1.8200  
    1.82100    19.6049u    1.8210  
    1.82200    19.6087u    1.8220  
    1.82300    19.6125u    1.8230  
    1.82400    19.6164u    1.8240  
    1.82500    19.6202u    1.8250  
    1.82600    19.6241u    1.8260  
    1.82700    19.6280u    1.8270  
    1.82800    19.6318u    1.8280  
    1.82900    19.6357u    1.8290  
    1.83000    19.6396u    1.8300  
    1.83100    19.6435u    1.8310  
    1.83200    19.6474u    1.8320  
    1.83300    19.6513u    1.8330  
    1.83400    19.6552u    1.8340  
    1.83500    19.6592u    1.8350  
    1.83600    19.6631u    1.8360  
    1.83700    19.6671u    1.8370  
    1.83800    19.6710u    1.8380  
    1.83900    19.6750u    1.8390  
    1.84000    19.6790u    1.8400  
    1.84100    19.6830u    1.8410  
    1.84200    19.6870u    1.8420  
    1.84300    19.6910u    1.8430  
    1.84400    19.6950u    1.8440  
    1.84500    19.6990u    1.8450  
    1.84600    19.7030u    1.8460  
    1.84700    19.7071u    1.8470  
    1.84800    19.7111u    1.8480  
    1.84900    19.7152u    1.8490  
    1.85000    19.7193u    1.8500  
    1.85100    19.7234u    1.8510  
    1.85200    19.7275u    1.8520  
    1.85300    19.7316u    1.8530  
    1.85400    19.7357u    1.8540  
    1.85500    19.7398u    1.8550  
    1.85600    19.7440u    1.8560  
    1.85700    19.7481u    1.8570  
    1.85800    19.7523u    1.8580  
    1.85900    19.7565u    1.8590  
    1.86000    19.7607u    1.8600  
    1.86100    19.7649u    1.8610  
    1.86200    19.7691u    1.8620  
    1.86300    19.7733u    1.8630  
    1.86400    19.7776u    1.8640  
    1.86500    19.7818u    1.8650  
    1.86600    19.7861u    1.8660  
    1.86700    19.7904u    1.8670  
    1.86800    19.7947u    1.8680  
    1.86900    19.7990u    1.8690  
    1.87000    19.8033u    1.8700  
    1.87100    19.8076u    1.8710  
    1.87200    19.8120u    1.8720  
    1.87300    19.8163u    1.8730  
    1.87400    19.8207u    1.8740  
    1.87500    19.8251u    1.8750  
    1.87600    19.8295u    1.8760  
    1.87700    19.8339u    1.8770  
    1.87800    19.8383u    1.8780  
    1.87900    19.8428u    1.8790  
    1.88000    19.8473u    1.8800  
    1.88100    19.8517u    1.8810  
    1.88200    19.8562u    1.8820  
    1.88300    19.8607u    1.8830  
    1.88400    19.8653u    1.8840  
    1.88500    19.8698u    1.8850  
    1.88600    19.8744u    1.8860  
    1.88700    19.8790u    1.8870  
    1.88800    19.8836u    1.8880  
    1.88900    19.8882u    1.8890  
    1.89000    19.8928u    1.8900  
    1.89100    19.8974u    1.8910  
    1.89200    19.9021u    1.8920  
    1.89300    19.9068u    1.8930  
    1.89400    19.9115u    1.8940  
    1.89500    19.9162u    1.8950  
    1.89600    19.9209u    1.8960  
    1.89700    19.9257u    1.8970  
    1.89800    19.9305u    1.8980  
    1.89900    19.9353u    1.8990  
    1.90000    19.9401u    1.9000  
    1.90100    19.9449u    1.9010  
    1.90200    19.9498u    1.9020  
    1.90300    19.9546u    1.9030  
    1.90400    19.9595u    1.9040  
    1.90500    19.9645u    1.9050  
    1.90600    19.9694u    1.9060  
    1.90700    19.9744u    1.9070  
    1.90800    19.9793u    1.9080  
    1.90900    19.9843u    1.9090  
    1.91000    19.9894u    1.9100  
    1.91100    19.9944u    1.9110  
    1.91200    19.9995u    1.9120  
    1.91300    20.0046u    1.9130  
    1.91400    20.0097u    1.9140  
    1.91500    20.0148u    1.9150  
    1.91600    20.0200u    1.9160  
    1.91700    20.0252u    1.9170  
    1.91800    20.0304u    1.9180  
    1.91900    20.0356u    1.9190  
    1.92000    20.0409u    1.9200  
    1.92100    20.0462u    1.9210  
    1.92200    20.0515u    1.9220  
    1.92300    20.0569u    1.9230  
    1.92400    20.0622u    1.9240  
    1.92500    20.0676u    1.9250  
    1.92600    20.0730u    1.9260  
    1.92700    20.0785u    1.9270  
    1.92800    20.0840u    1.9280  
    1.92900    20.0895u    1.9290  
    1.93000    20.0950u    1.9300  
    1.93100    20.1006u    1.9310  
    1.93200    20.1062u    1.9320  
    1.93300    20.1118u    1.9330  
    1.93400    20.1174u    1.9340  
    1.93500    20.1231u    1.9350  
    1.93600    20.1288u    1.9360  
    1.93700    20.1346u    1.9370  
    1.93800    20.1403u    1.9380  
    1.93900    20.1462u    1.9390  
    1.94000    20.1520u    1.9400  
    1.94100    20.1579u    1.9410  
    1.94200    20.1638u    1.9420  
    1.94300    20.1697u    1.9430  
    1.94400    20.1757u    1.9440  
    1.94500    20.1817u    1.9450  
    1.94600    20.1877u    1.9460  
    1.94700    20.1938u    1.9470  
    1.94800    20.1999u    1.9480  
    1.94900    20.2061u    1.9490  
    1.95000    20.2122u    1.9500  
    1.95100    20.2185u    1.9510  
    1.95200    20.2247u    1.9520  
    1.95300    20.2310u    1.9530  
    1.95400    20.2373u    1.9540  
    1.95500    20.2437u    1.9550  
    1.95600    20.2501u    1.9560  
    1.95700    20.2566u    1.9570  
    1.95800    20.2631u    1.9580  
    1.95900    20.2696u    1.9590  
    1.96000    20.2762u    1.9600  
    1.96100    20.2828u    1.9610  
    1.96200    20.2894u    1.9620  
    1.96300    20.2961u    1.9630  
    1.96400    20.3029u    1.9640  
    1.96500    20.3096u    1.9650  
    1.96600    20.3165u    1.9660  
    1.96700    20.3233u    1.9670  
    1.96800    20.3303u    1.9680  
    1.96900    20.3372u    1.9690  
    1.97000    20.3442u    1.9700  
    1.97100    20.3513u    1.9710  
    1.97200    20.3584u    1.9720  
    1.97300    20.3655u    1.9730  
    1.97400    20.3727u    1.9740  
    1.97500    20.3800u    1.9750  
    1.97600    20.3873u    1.9760  
    1.97700    20.3946u    1.9770  
    1.97800    20.4020u    1.9780  
    1.97900    20.4094u    1.9790  
    1.98000    20.4169u    1.9800  
    1.98100    20.4245u    1.9810  
    1.98200    20.4321u    1.9820  
    1.98300    20.4397u    1.9830  
    1.98400    20.4474u    1.9840  
    1.98500    20.4552u    1.9850  
    1.98600    20.4630u    1.9860  
    1.98700    20.4709u    1.9870  
    1.98800    20.4788u    1.9880  
    1.98900    20.4868u    1.9890  
    1.99000    20.4949u    1.9900  
    1.99100    20.5030u    1.9910  
    1.99200    20.5111u    1.9920  
    1.99300    20.5194u    1.9930  
    1.99400    20.5276u    1.9940  
    1.99500    20.5360u    1.9950  
    1.99600    20.5444u    1.9960  
    1.99700    20.5529u    1.9970  
    1.99800    20.5614u    1.9980  
    1.99900    20.5700u    1.9990  
    2.00000    20.5786u    2.0000  
    2.00100    20.5874u    2.0010  
    2.00200    20.5962u    2.0020  
    2.00300    20.6050u    2.0030  
    2.00400    20.6139u    2.0040  
    2.00500    20.6229u    2.0050  
    2.00600    20.6320u    2.0060  
    2.00700    20.6411u    2.0070  
    2.00800    20.6503u    2.0080  
    2.00900    20.6596u    2.0090  
    2.01000    20.6690u    2.0100  
    2.01100    20.6784u    2.0110  
    2.01200    20.6879u    2.0120  
    2.01300    20.6974u    2.0130  
    2.01400    20.7071u    2.0140  
    2.01500    20.7168u    2.0150  
    2.01600    20.7266u    2.0160  
    2.01700    20.7365u    2.0170  
    2.01800    20.7464u    2.0180  
    2.01900    20.7565u    2.0190  
    2.02000    20.7666u    2.0200  
    2.02100    20.7768u    2.0210  
    2.02200    20.7870u    2.0220  
    2.02300    20.7974u    2.0230  
    2.02400    20.8078u    2.0240  
    2.02500    20.8184u    2.0250  
    2.02600    20.8290u    2.0260  
    2.02700    20.8397u    2.0270  
    2.02800    20.8505u    2.0280  
    2.02900    20.8613u    2.0290  
    2.03000    20.8723u    2.0300  
    2.03100    20.8834u    2.0310  
    2.03200    20.8945u    2.0320  
    2.03300    20.9057u    2.0330  
    2.03400    20.9171u    2.0340  
    2.03500    20.9285u    2.0350  
    2.03600    20.9400u    2.0360  
    2.03700    20.9516u    2.0370  
    2.03800    20.9633u    2.0380  
    2.03900    20.9751u    2.0390  
    2.04000    20.9870u    2.0400  
    2.04100    20.9991u    2.0410  
    2.04200    21.0112u    2.0420  
    2.04300    21.0234u    2.0430  
    2.04400    21.0357u    2.0440  
    2.04500    21.0481u    2.0450  
    2.04600    21.0606u    2.0460  
    2.04700    21.0733u    2.0470  
    2.04800    21.0860u    2.0480  
    2.04900    21.0988u    2.0490  
    2.05000    21.1118u    2.0500  
    2.05100    21.1249u    2.0510  
    2.05200    21.1380u    2.0520  
    2.05300    21.1513u    2.0530  
    2.05400    21.1647u    2.0540  
    2.05500    21.1783u    2.0550  
    2.05600    21.1919u    2.0560  
    2.05700    21.2056u    2.0570  
    2.05800    21.2195u    2.0580  
    2.05900    21.2335u    2.0590  
    2.06000    21.2476u    2.0600  
    2.06100    21.2618u    2.0610  
    2.06200    21.2762u    2.0620  
    2.06300    21.2907u    2.0630  
    2.06400    21.3053u    2.0640  
    2.06500    21.3200u    2.0650  
    2.06600    21.3349u    2.0660  
    2.06700    21.3499u    2.0670  
    2.06800    21.3650u    2.0680  
    2.06900    21.3803u    2.0690  
    2.07000    21.3956u    2.0700  
    2.07100    21.4112u    2.0710  
    2.07200    21.4268u    2.0720  
    2.07300    21.4426u    2.0730  
    2.07400    21.4585u    2.0740  
    2.07500    21.4746u    2.0750  
    2.07600    21.4908u    2.0760  
    2.07700    21.5072u    2.0770  
    2.07800    21.5237u    2.0780  
    2.07900    21.5403u    2.0790  
    2.08000    21.5571u    2.0800  
    2.08100    21.5741u    2.0810  
    2.08200    21.5912u    2.0820  
    2.08300    21.6084u    2.0830  
    2.08400    21.6258u    2.0840  
    2.08500    21.6433u    2.0850  
    2.08600    21.6610u    2.0860  
    2.08700    21.6789u    2.0870  
    2.08800    21.6969u    2.0880  
    2.08900    21.7151u    2.0890  
    2.09000    21.7334u    2.0900  
    2.09100    21.7519u    2.0910  
    2.09200    21.7706u    2.0920  
    2.09300    21.7894u    2.0930  
    2.09400    21.8084u    2.0940  
    2.09500    21.8275u    2.0950  
    2.09600    21.8469u    2.0960  
    2.09700    21.8664u    2.0970  
    2.09800    21.8860u    2.0980  
    2.09900    21.9059u    2.0990  
    2.10000    21.9259u    2.1000  
    2.10100    21.9461u    2.1010  
    2.10200    21.9665u    2.1020  
    2.10300    21.9871u    2.1030  
    2.10400    22.0078u    2.1040  
    2.10500    22.0287u    2.1050  
    2.10600    22.0498u    2.1060  
    2.10700    22.0711u    2.1070  
    2.10800    22.0926u    2.1080  
    2.10900    22.1143u    2.1090  
    2.11000    22.1362u    2.1100  
    2.11100    22.1583u    2.1110  
    2.11200    22.1805u    2.1120  
    2.11300    22.2030u    2.1130  
    2.11400    22.2256u    2.1140  
    2.11500    22.2485u    2.1150  
    2.11600    22.2716u    2.1160  
    2.11700    22.2948u    2.1170  
    2.11800    22.3183u    2.1180  
    2.11900    22.3420u    2.1190  
    2.12000    22.3659u    2.1200  
    2.12100    22.3900u    2.1210  
    2.12200    22.4143u    2.1220  
    2.12300    22.4388u    2.1230  
    2.12400    22.4636u    2.1240  
    2.12500    22.4886u    2.1250  
    2.12600    22.5138u    2.1260  
    2.12700    22.5392u    2.1270  
    2.12800    22.5648u    2.1280  
    2.12900    22.5907u    2.1290  
    2.13000    22.6168u    2.1300  
    2.13100    22.6431u    2.1310  
    2.13200    22.6696u    2.1320  
    2.13300    22.6964u    2.1330  
    2.13400    22.7235u    2.1340  
    2.13500    22.7507u    2.1350  
    2.13600    22.7782u    2.1360  
    2.13700    22.8060u    2.1370  
    2.13800    22.8340u    2.1380  
    2.13900    22.8622u    2.1390  
    2.14000    22.8907u    2.1400  
    2.14100    22.9194u    2.1410  
    2.14200    22.9484u    2.1420  
    2.14300    22.9776u    2.1430  
    2.14400    23.0071u    2.1440  
    2.14500    23.0369u    2.1450  
    2.14600    23.0669u    2.1460  
    2.14700    23.0972u    2.1470  
    2.14800    23.1277u    2.1480  
    2.14900    23.1586u    2.1490  
    2.15000    23.1896u    2.1500  
    2.15100    23.2210u    2.1510  
    2.15200    23.2526u    2.1520  
    2.15300    23.2845u    2.1530  
    2.15400    23.3167u    2.1540  
    2.15500    23.3492u    2.1550  
    2.15600    23.3819u    2.1560  
    2.15700    23.4149u    2.1570  
    2.15800    23.4482u    2.1580  
    2.15900    23.4818u    2.1590  
    2.16000    23.5157u    2.1600  
    2.16100    23.5499u    2.1610  
    2.16200    23.5844u    2.1620  
    2.16300    23.6192u    2.1630  
    2.16400    23.6543u    2.1640  
    2.16500    23.6897u    2.1650  
    2.16600    23.7254u    2.1660  
    2.16700    23.7614u    2.1670  
    2.16800    23.7977u    2.1680  
    2.16900    23.8343u    2.1690  
    2.17000    23.8712u    2.1700  
    2.17100    23.9085u    2.1710  
    2.17200    23.9461u    2.1720  
    2.17300    23.9840u    2.1730  
    2.17400    24.0222u    2.1740  
    2.17500    24.0607u    2.1750  
    2.17600    24.0996u    2.1760  
    2.17700    24.1388u    2.1770  
    2.17800    24.1784u    2.1780  
    2.17900    24.2182u    2.1790  
    2.18000    24.2585u    2.1800  
[...]
    4.48500     3.1090m    4.4850  
    4.48600     3.1202m    4.4860  
    4.48700     3.1314m    4.4870  
    4.48800     3.1427m    4.4880  
    4.48900     3.1540m    4.4890  
    4.49000     3.1653m    4.4900  
    4.49100     3.1766m    4.4910  
    4.49200     3.1880m    4.4920  
    4.49300     3.1995m    4.4930  
    4.49400     3.2109m    4.4940  
    4.49500     3.2225m    4.4950  
    4.49600     3.2340m    4.4960  
    4.49700     3.2456m    4.4970  
    4.49800     3.2572m    4.4980  
    4.49900     3.2688m    4.4990  
    4.50000     3.2805m    4.5000  
    4.50100     3.2922m    4.5010  
    4.50200     3.3040m    4.5020  
    4.50300     3.3158m    4.5030  
    4.50400     3.3276m    4.5040  
    4.50500     3.3395m    4.5050  
    4.50600     3.3514m    4.5060  
    4.50700     3.3633m    4.5070  
    4.50800     3.3753m    4.5080  
    4.50900     3.3873m    4.5090  
    4.51000     3.3994m    4.5100  
    4.51100     3.4115m    4.5110  
    4.51200     3.4236m    4.5120  
    4.51300     3.4358m    4.5130  
    4.51400     3.4480m    4.5140  
    4.51500     3.4602m    4.5150  
    4.51600     3.4725m    4.5160  
    4.51700     3.4848m    4.5170  
    4.51800     3.4972m    4.5180  
    4.51900     3.5095m    4.5190  
    4.52000     3.5220m    4.5200  
    4.52100     3.5344m    4.5210  
    4.52200     3.5469m    4.5220  
    4.52300     3.5595m    4.5230  
    4.52400     3.5721m    4.5240  
    4.52500     3.5847m    4.5250  
    4.52600     3.5973m    4.5260  
    4.52700     3.6100m    4.5270  
    4.52800     3.6228m    4.5280  
    4.52900     3.6356m    4.5290  
    4.53000     3.6484m    4.5300  
    4.53100     3.6612m    4.5310  
    4.53200     3.6741m    4.5320  
    4.53300     3.6870m    4.5330  
    4.53400     3.7000m    4.5340  
    4.53500     3.7130m    4.5350  
    4.53600     3.7261m    4.5360  
    4.53700     3.7392m    4.5370  
    4.53800     3.7523m    4.5380  
    4.53900     3.7655m    4.5390  
    4.54000     3.7787m    4.5400  
    4.54100     3.7919m    4.5410  
    4.54200     3.8052m    4.5420  
    4.54300     3.8185m    4.5430  
    4.54400     3.8319m    4.5440  
    4.54500     3.8453m    4.5450  
    4.54600     3.8587m    4.5460  
    4.54700     3.8722m    4.5470  
    4.54800     3.8858m    4.5480  
    4.54900     3.8993m    4.5490  
    4.55000     3.9129m    4.5500  
    4.55100     3.9266m    4.5510  
    4.55200     3.9403m    4.5520  
    4.55300     3.9540m    4.5530  
    4.55400     3.9678m    4.5540  
    4.55500     3.9816m    4.5550  
    4.55600     3.9955m    4.5560  
    4.55700     4.0094m    4.5570  
    4.55800     4.0233m    4.5580  
    4.55900     4.0373m    4.5590  
    4.56000     4.0513m    4.5600  
    4.56100     4.0654m    4.5610  
    4.56200     4.0795m    4.5620  
    4.56300     4.0936m    4.5630  
    4.56400     4.1078m    4.5640  
    4.56500     4.1221m    4.5650  
    4.56600     4.1363m    4.5660  
    4.56700     4.1506m    4.5670  
    4.56800     4.1650m    4.5680  
    4.56900     4.1794m    4.5690  
    4.57000     4.1939m    4.5700  
    4.57100     4.2083m    4.5710  
    4.57200     4.2229m    4.5720  
    4.57300     4.2374m    4.5730  
    4.57400     4.2521m    4.5740  
    4.57500     4.2667m    4.5750  
    4.57600     4.2814m    4.5760  
    4.57700     4.2962m    4.5770  
    4.57800     4.3110m    4.5780  
    4.57900     4.3258m    4.5790  
    4.58000     4.3407m    4.5800  
    4.58100     4.3556m    4.5810  
    4.58200     4.3706m    4.5820  
    4.58300     4.3856m    4.5830  
    4.58400     4.4006m    4.5840  
    4.58500     4.4157m    4.5850  
    4.58600     4.4309m    4.5860  
    4.58700     4.4461m    4.5870  
    4.58800     4.4613m    4.5880  
    4.58900     4.4766m    4.5890  
    4.59000     4.4919m    4.5900  
    4.59100     4.5072m    4.5910  
    4.59200     4.5227m    4.5920  
    4.59300     4.5381m    4.5930  
    4.59400     4.5536m    4.5940  
    4.59500     4.5691m    4.5950  
    4.59600     4.5847m    4.5960  
    4.59700     4.6004m    4.5970  
    4.59800     4.6161m    4.5980  
    4.59900     4.6318m    4.5990  
    4.60000     4.6476m    4.6000  
    4.60100     4.6634m    4.6010  
    4.60200     4.6792m    4.6020  
    4.60300     4.6951m    4.6030  
    4.60400     4.7111m    4.6040  
    4.60500     4.7271m    4.6050  
    4.60600     4.7431m    4.6060  
    4.60700     4.7592m    4.6070  
    4.60800     4.7754m    4.6080  
    4.60900     4.7916m    4.6090  
    4.61000     4.8078m    4.6100  
    4.61100     4.8241m    4.6110  
    4.61200     4.8404m    4.6120  
    4.61300     4.8568m    4.6130  
    4.61400     4.8732m    4.6140  
    4.61500     4.8897m    4.6150  
    4.61600     4.9062m    4.6160  
    4.61700     4.9228m    4.6170  
    4.61800     4.9394m    4.6180  
    4.61900     4.9560m    4.6190  
    4.62000     4.9727m    4.6200  
    4.62100     4.9895m    4.6210  
    4.62200     5.0063m    4.6220  
    4.62300     5.0232m    4.6230  
    4.62400     5.0401m    4.6240  
    4.62500     5.0570m    4.6250  
    4.62600     5.0740m    4.6260  
    4.62700     5.0910m    4.6270  
    4.62800     5.1081m    4.6280  
    4.62900     5.1253m    4.6290  
    4.63000     5.1425m    4.6300  
    4.63100     5.1597m    4.6310  
    4.63200     5.1770m    4.6320  
    4.63300     5.1943m    4.6330  
    4.63400     5.2117m    4.6340  
    4.63500     5.2292m    4.6350  
    4.63600     5.2466m    4.6360  
    4.63700     5.2642m    4.6370  
    4.63800     5.2818m    4.6380  
    4.63900     5.2994m    4.6390  
    4.64000     5.3171m    4.6400  
    4.64100     5.3348m    4.6410  
    4.64200     5.3526m    4.6420  
    4.64300     5.3704m    4.6430  
    4.64400     5.3883m    4.6440  
    4.64500     5.4063m    4.6450  
    4.64600     5.4242m    4.6460  
    4.64700     5.4423m    4.6470  
    4.64800     5.4604m    4.6480  
    4.64900     5.4785m    4.6490  
    4.65000     5.4967m    4.6500  
    4.65100     5.5149m    4.6510  
    4.65200     5.5332m    4.6520  
    4.65300     5.5516m    4.6530  
    4.65400     5.5700m    4.6540  
    4.65500     5.5884m    4.6550  
    4.65600     5.6069m    4.6560  
    4.65700     5.6255m    4.6570  
    4.65800     5.6441m    4.6580  
    4.65900     5.6627m    4.6590  
    4.66000     5.6814m    4.6600  
    4.66100     5.7002m    4.6610  
    4.66200     5.7190m    4.6620  
    4.66300     5.7378m    4.6630  
    4.66400     5.7568m    4.6640  
    4.66500     5.7757m    4.6650  
    4.66600     5.7947m    4.6660  
    4.66700     5.8138m    4.6670  
    4.66800     5.8329m    4.6680  
    4.66900     5.8521m    4.6690  
    4.67000     5.8714m    4.6700  
    4.67100     5.8906m    4.6710  
    4.67200     5.9100m    4.6720  
    4.67300     5.9294m    4.6730  
    4.67400     5.9488m    4.6740  
    4.67500     5.9683m    4.6750  
    4.67600     5.9879m    4.6760  
    4.67700     6.0075m    4.6770  
    4.67800     6.0272m    4.6780  
    4.67900     6.0469m    4.6790  
    4.68000     6.0666m    4.6800  
    4.68100     6.0865m    4.6810  
    4.68200     6.1063m    4.6820  
    4.68300     6.1263m    4.6830  
    4.68400     6.1463m    4.6840  
    4.68500     6.1663m    4.6850  
    4.68600     6.1864m    4.6860  
    4.68700     6.2066m    4.6870  
    4.68800     6.2268m    4.6880  
    4.68900     6.2470m    4.6890  
    4.69000     6.2674m    4.6900  
    4.69100     6.2877m    4.6910  
    4.69200     6.3082m    4.6920  
    4.69300     6.3287m    4.6930  
    4.69400     6.3492m    4.6940  
    4.69500     6.3698m    4.6950  
    4.69600     6.3905m    4.6960  
    4.69700     6.4112m    4.6970  
    4.69800     6.4320m    4.6980  
    4.69900     6.4528m    4.6990  
    4.70000     6.4737m    4.7000  
    4.70100     6.4946m    4.7010  
    4.70200     6.5156m    4.7020  
    4.70300     6.5367m    4.7030  
    4.70400     6.5578m    4.7040  
    4.70500     6.5789m    4.7050  
    4.70600     6.6002m    4.7060  
    4.70700     6.6214m    4.7070  
    4.70800     6.6428m    4.7080  
    4.70900     6.6642m    4.7090  
    4.71000     6.6856m    4.7100  
    4.71100     6.7072m    4.7110  
    4.71200     6.7287m    4.7120  
    4.71300     6.7504m    4.7130  
    4.71400     6.7720m    4.7140  
    4.71500     6.7938m    4.7150  
    4.71600     6.8156m    4.7160  
    4.71700     6.8375m    4.7170  
    4.71800     6.8594m    4.7180  
    4.71900     6.8814m    4.7190  
    4.72000     6.9034m    4.7200  
    4.72100     6.9255m    4.7210  
    4.72200     6.9477m    4.7220  
    4.72300     6.9699m    4.7230  
    4.72400     6.9922m    4.7240  
    4.72500     7.0145m    4.7250  
    4.72600     7.0369m    4.7260  
    4.72700     7.0594m    4.7270  
    4.72800     7.0819m    4.7280  
    4.72900     7.1045m    4.7290  
    4.73000     7.1271m    4.7300  
    4.73100     7.1498m    4.7310  
    4.73200     7.1726m    4.7320  
    4.73300     7.1954m    4.7330  
    4.73400     7.2183m    4.7340  
    4.73500     7.2412m    4.7350  
    4.73600     7.2642m    4.7360  
    4.73700     7.2873m    4.7370  
    4.73800     7.3104m    4.7380  
    4.73900     7.3336m    4.7390  
    4.74000     7.3569m    4.7400  
    4.74100     7.3802m    4.7410  
    4.74200     7.4036m    4.7420  
    4.74300     7.4270m    4.7430  
    4.74400     7.4505m    4.7440  
    4.74500     7.4741m    4.7450  
    4.74600     7.4977m    4.7460  
    4.74700     7.5214m    4.7470  
    4.74800     7.5451m    4.7480  
    4.74900     7.5689m    4.7490  
    4.75000     7.5928m    4.7500  
    4.75100     7.6167m    4.7510  
    4.75200     7.6407m    4.7520  
    4.75300     7.6648m    4.7530  
    4.75400     7.6889m    4.7540  
    4.75500     7.7131m    4.7550  
    4.75600     7.7374m    4.7560  
    4.75700     7.7617m    4.7570  
    4.75800     7.7861m    4.7580  
    4.75900     7.8105m    4.7590  
    4.76000     7.8350m    4.7600  
    4.76100     7.8596m    4.7610  
    4.76200     7.8842m    4.7620  
    4.76300     7.9089m    4.7630  
    4.76400     7.9337m    4.7640  
    4.76500     7.9585m    4.7650  
    4.76600     7.9834m    4.7660  
    4.76700     8.0084m    4.7670  
    4.76800     8.0334m    4.7680  
    4.76900     8.0585m    4.7690  
    4.77000     8.0837m    4.7700  
    4.77100     8.1089m    4.7710  
    4.77200     8.1342m    4.7720  
    4.77300     8.1596m    4.7730  
    4.77400     8.1850m    4.7740  
    4.77500     8.2105m    4.7750  
    4.77600     8.2360m    4.7760  
    4.77700     8.2616m    4.7770  
    4.77800     8.2873m    4.7780  
    4.77900     8.3131m    4.7790  
    4.78000     8.3389m    4.7800  
    4.78100     8.3648m    4.7810  
    4.78200     8.3907m    4.7820  
    4.78300     8.4168m    4.7830  
    4.78400     8.4429m    4.7840  
    4.78500     8.4690m    4.7850  
    4.78600     8.4952m    4.7860  
    4.78700     8.5215m    4.7870  
    4.78800     8.5479m    4.7880  
    4.78900     8.5743m    4.7890  
    4.79000     8.6008m    4.7900  
    4.79100     8.6274m    4.7910  
    4.79200     8.6540m    4.7920  
    4.79300     8.6807m    4.7930  
    4.79400     8.7075m    4.7940  
    4.79500     8.7343m    4.7950  
    4.79600     8.7612m    4.7960  
    4.79700     8.7882m    4.7970  
    4.79800     8.8152m    4.7980  
    4.79900     8.8424m    4.7990  
    4.80000     8.8695m    4.8000  
    4.80100     8.8968m    4.8010  
    4.80200     8.9241m    4.8020  
    4.80300     8.9515m    4.8030  
    4.80400     8.9790m    4.8040  
    4.80500     9.0065m    4.8050  
    4.80600     9.0341m    4.8060  
    4.80700     9.0618m    4.8070  
    4.80800     9.0895m    4.8080  
    4.80900     9.1174m    4.8090  
    4.81000     9.1452m    4.8100  
    4.81100     9.1732m    4.8110  
    4.81200     9.2012m    4.8120  
    4.81300     9.2293m    4.8130  
    4.81400     9.2575m    4.8140  
    4.81500     9.2857m    4.8150  
    4.81600     9.3141m    4.8160  
    4.81700     9.3424m    4.8170  
    4.81800     9.3709m    4.8180  
    4.81900     9.3994m    4.8190  
    4.82000     9.4280m    4.8200  
    4.82100     9.4567m    4.8210  
    4.82200     9.4855m    4.8220  
    4.82300     9.5143m    4.8230  
    4.82400     9.5432m    4.8240  
    4.82500     9.5722m    4.8250  
    4.82600     9.6012m    4.8260  
    4.82700     9.6303m    4.8270  
    4.82800     9.6595m    4.8280  
    4.82900     9.6888m    4.8290  
    4.83000     9.7181m    4.8300  
    4.83100     9.7475m    4.8310  
    4.83200     9.7770m    4.8320  
    4.83300     9.8065m    4.8330  
    4.83400     9.8362m    4.8340  
    4.83500     9.8659m    4.8350  
    4.83600     9.8956m    4.8360  
    4.83700     9.9255m    4.8370  
    4.83800     9.9554m    4.8380  
    4.83900     9.9854m    4.8390  
    4.84000    10.0155m    4.8400  
    4.84100    10.0457m    4.8410  
    4.84200    10.0759m    4.8420  
    4.84300    10.1062m    4.8430  
    4.84400    10.1366m    4.8440  
    4.84500    10.1670m    4.8450  
    4.84600    10.1976m    4.8460  
    4.84700    10.2282m    4.8470  
    4.84800    10.2589m    4.8480  
    4.84900    10.2896m    4.8490  
    4.85000    10.3205m    4.8500  
    4.85100    10.3514m    4.8510  
    4.85200    10.3824m    4.8520  
    4.85300    10.4135m    4.8530  
    4.85400    10.4446m    4.8540  
    4.85500    10.4758m    4.8550  
    4.85600    10.5071m    4.8560  
    4.85700    10.5385m    4.8570  
    4.85800    10.5700m    4.8580  
    4.85900    10.6015m    4.8590  
    4.86000    10.6331m    4.8600  
    4.86100    10.6648m    4.8610  
    4.86200    10.6966m    4.8620  
    4.86300    10.7284m    4.8630  
    4.86400    10.7604m    4.8640  
    4.86500    10.7924m    4.8650  
    4.86600    10.8244m    4.8660  
    4.86700    10.8566m    4.8670  
    4.86800    10.8889m    4.8680  
    4.86900    10.9212m    4.8690  
    4.87000    10.9536m    4.8700  
    4.87100    10.9861m    4.8710  
    4.87200    11.0186m    4.8720  
    4.87300    11.0513m    4.8730  
    4.87400    11.0840m    4.8740  
    4.87500    11.1168m    4.8750  
    4.87600    11.1497m    4.8760  
    4.87700    11.1826m    4.8770  
    4.87800    11.2157m    4.8780  
    4.87900    11.2488m    4.8790  
    4.88000    11.2820m    4.8800  
    4.88100    11.3153m    4.8810  
    4.88200    11.3487m    4.8820  
    4.88300    11.3821m    4.8830  
    4.88400    11.4157m    4.8840  
    4.88500    11.4493m    4.8850  
    4.88600    11.4830m    4.8860  
    4.88700    11.5168m    4.8870  
    4.88800    11.5506m    4.8880  
    4.88900    11.5846m    4.8890  
    4.89000    11.6186m    4.8900  
    4.89100    11.6527m    4.8910  
    4.89200    11.6869m    4.8920  
    4.89300    11.7212m    4.8930  
    4.89400    11.7555m    4.8940  
    4.89500    11.7900m    4.8950  
    4.89600    11.8245m    4.8960  
    4.89700    11.8591m    4.8970  
    4.89800    11.8938m    4.8980  
    4.89900    11.9286m    4.8990  
    4.90000    11.9635m    4.9000  
    4.90100    11.9984m    4.9010  
    4.90200    12.0334m    4.9020  
    4.90300    12.0686m    4.9030  
    4.90400    12.1038m    4.9040  
    4.90500    12.1391m    4.9050  
    4.90600    12.1744m    4.9060  
    4.90700    12.2099m    4.9070  
    4.90800    12.2454m    4.9080  
    4.90900    12.2811m    4.9090  
    4.91000    12.3168m    4.9100  
    4.91100    12.3526m    4.9110  
    4.91200    12.3885m    4.9120  
    4.91300    12.4244m    4.9130  
    4.91400    12.4605m    4.9140  
    4.91500    12.4966m    4.9150  
    4.91600    12.5329m    4.9160  
    4.91700    12.5692m    4.9170  
    4.91800    12.6056m    4.9180  
    4.91900    12.6421m    4.9190  
    4.92000    12.6787m    4.9200  
    4.92100    12.7154m    4.9210  
    4.92200    12.7521m    4.9220  
    4.92300    12.7890m    4.9230  
    4.92400    12.8259m    4.9240  
    4.92500    12.8629m    4.9250  
    4.92600    12.9000m    4.9260  
    4.92700    12.9372m    4.9270  
    4.92800    12.9745m    4.9280  
    4.92900    13.0119m    4.9290  
    4.93000    13.0494m    4.9300  
    4.93100    13.0869m    4.9310  
    4.93200    13.1246m    4.9320  
    4.93300    13.1623m    4.9330  
    4.93400    13.2001m    4.9340  
    4.93500    13.2381m    4.9350  
    4.93600    13.2761m    4.9360  
    4.93700    13.3142m    4.9370  
    4.93800    13.3523m    4.9380  
    4.93900    13.3906m    4.9390  
    4.94000    13.4290m    4.9400  
    4.94100    13.4675m    4.9410  
    4.94200    13.5060m    4.9420  
    4.94300    13.5446m    4.9430  
    4.94400    13.5834m    4.9440  
    4.94500    13.6222m    4.9450  
    4.94600    13.6611m    4.9460  
    4.94700    13.7001m    4.9470  
    4.94800    13.7392m    4.9480  
    4.94900    13.7784m    4.9490  
    4.95000    13.8177m    4.9500  
    4.95100    13.8571m    4.9510  
    4.95200    13.8966m    4.9520  
    4.95300    13.9361m    4.9530  
    4.95400    13.9758m    4.9540  
    4.95500    14.0155m    4.9550  
    4.95600    14.0554m    4.9560  
    4.95700    14.0953m    4.9570  
    4.95800    14.1354m    4.9580  
    4.95900    14.1755m    4.9590  
    4.96000    14.2157m    4.9600  
    4.96100    14.2560m    4.9610  
    4.96200    14.2964m    4.9620  
    4.96300    14.3370m    4.9630  
    4.96400    14.3776m    4.9640  
    4.96500    14.4183m    4.9650  
    4.96600    14.4590m    4.9660  
    4.96700    14.4999m    4.9670  
    4.96800    14.5409m    4.9680  
    4.96900    14.5820m    4.9690  
    4.97000    14.6232m    4.9700  
    4.97100    14.6644m    4.9710  
    4.97200    14.7058m    4.9720  
    4.97300    14.7473m    4.9730  
    4.97400    14.7888m    4.9740  
    4.97500    14.8305m    4.9750  
    4.97600    14.8722m    4.9760  
    4.97700    14.9141m    4.9770  
    4.97800    14.9560m    4.9780  
    4.97900    14.9981m    4.9790  
    4.98000    15.0402m    4.9800  
    4.98100    15.0825m    4.9810  
    4.98200    15.1248m    4.9820  
    4.98300    15.1673m    4.9830  
    4.98400    15.2098m    4.9840  
    4.98500    15.2524m    4.9850  
    4.98600    15.2952m    4.9860  
    4.98700    15.3380m    4.9870  
    4.98800    15.3809m    4.9880  
    4.98900    15.4240m    4.9890  
    4.99000    15.4671m    4.9900  
    4.99100    15.5103m    4.9910  
    4.99200    15.5537m    4.9920  
    4.99300    15.5971m    4.9930  
    4.99400    15.6407m    4.9940  
    4.99500    15.6843m    4.9950  
    4.99600    15.7280m    4.9960  
    4.99700    15.7719m    4.9970  
    4.99800    15.8158m    4.9980  
    4.99900    15.8598m    4.9990  
    5.00000    15.9040m    5.0000  
y

          ***** job concluded
 ******  
 

 ****** job statistics summary tnom=  25.000 temp=  25.000 ******

  ******  Circuit Statistics  ******
  # nodes       =       7 # elements   =       3
  # resistors   =       0 # capacitors =       0 # inductors   =       0
  # mutual_inds =       0 # vccs       =       0 # vcvs        =       0
  # cccs        =       0 # ccvs       =       0 # volt_srcs   =       2
  # curr_srcs   =       0 # diodes     =       0 # bjts        =       0
  # jfets       =       0 # mosfets    =       1 # U elements  =       0
  # T elements  =       0 # W elements =       0 # B elements  =       0
  # S elements  =       0 # P elements =       0 # va device   =       0
  # vector_srcs =       0 # N elements =       0


  ******  Runtime Statistics (seconds)  ******

  analysis           time    # points   tot. iter  conv.iter
  op point           0.00           1           0
  dc sweep           0.16        5001       10004
  readin             0.01
  errchk             0.00
  setup              0.00
  output             0.00


           peak memory used         64.07 megabytes
           total cpu time            0.19 seconds
           total elapsed time        0.19 seconds
           job started at     23:45:35 11/02/2021
           job ended   at     23:45:36 11/02/2021


  lic: Release hspice token(s) 
 lic: total license checkout elapse time:        0.02(s)
