 ****** HSPICE -- O-2018.09-SP2 win64 (Feb 25 2019) ******                      
  Copyright (c) 1986 - 2021 by Synopsys, Inc. All Rights Reserved.              
  This software and the associated documentation are proprietary
  to Synopsys, Inc. This software may only be used in accordance
  with the terms and conditions of a written license agreement with
  Synopsys, Inc. All other use, reproduction, or distribution of
  this software is strictly prohibited.
  Input File: pmos@50n.sp                                                       
  Command line options: C:\synopsys\Hspice_O-2018.09-SP2\WIN64\hspice.com -i pmos@50n.sp -o C:\sdsy\case1\pmos@50n.lis
  Start time: Tue Nov  2 23:56:51 2021
  lic:  
  lic: FLEXlm: SDK_11.7.3 
  lic: USER:   admin                HOSTNAME: DESKTOP-3KO7170 
  lic: HOSTID: "d83bbfb49802"       PID:      52192 
  lic: Using FLEXlm license file: 
  lic: 27000@DESKTOP-3KO7170 
  lic: Checkout 1 hspice 
  lic: License/Maintenance for hspice will expire on 30-dec-2029/2019.2019 
  lic: 1(in_use)/99(total) FLOATING license(s) on SERVER 27000@DESKTOP-3KO7170 
  lic:   
  
      

Element variations(Local):   element              parameter
 *****************************************************************
 ******  option summary
 ******
 runlvl  = 3         bypass  = 2.0000    
  **warning** negative-mos conductance =      0:m1               iter=    2
 vds,vgs,vbs =          0.844         0.144        0.8421
  gm,gds,gmbs,ids=     5.097E-06     3.977E-07    -5.387E-09     3.589E-07
 ******
 

 ****** dc transfer curves tnom=  25.000 temp=  25.000 ******
x

 volt         current    voltage   
             m1         vin        
    0.       -281.1633p    0.      
    1.00000m -281.1633p    1.0000m 
    2.00000m -281.1633p    2.0000m 
    3.00000m -281.1633p    3.0000m 
    4.00000m -281.1633p    4.0000m 
    5.00000m -281.1633p    5.0000m 
    6.00000m -281.1633p    6.0000m 
    7.00000m -281.1633p    7.0000m 
    8.00000m -281.1633p    8.0000m 
    9.00000m -281.1633p    9.0000m 
   10.00000m -281.1633p   10.0000m 
   11.00000m -281.1633p   11.0000m 
   12.00000m -281.1633p   12.0000m 
   13.00000m -281.1633p   13.0000m 
   14.00000m -281.1633p   14.0000m 
   15.00000m -281.1633p   15.0000m 
   16.00000m -281.1633p   16.0000m 
   17.00000m -281.1633p   17.0000m 
   18.00000m -281.1633p   18.0000m 
   19.00000m -281.1633p   19.0000m 
   20.00000m -281.1633p   20.0000m 
   21.00000m -281.1633p   21.0000m 
   22.00000m -281.1633p   22.0000m 
   23.00000m -281.1633p   23.0000m 
   24.00000m -281.1633p   24.0000m 
   25.00000m -281.1633p   25.0000m 
   26.00000m -281.1633p   26.0000m 
   27.00000m -281.1633p   27.0000m 
   28.00000m -281.1633p   28.0000m 
   29.00000m -281.1633p   29.0000m 
   30.00000m -281.1633p   30.0000m 
   31.00000m -281.1633p   31.0000m 
   32.00000m -281.1633p   32.0000m 
   33.00000m -281.1633p   33.0000m 
   34.00000m -281.1633p   34.0000m 
   35.00000m -281.1633p   35.0000m 
   36.00000m -281.1633p   36.0000m 
   37.00000m -281.1633p   37.0000m 
   38.00000m -281.1633p   38.0000m 
   39.00000m -281.1633p   39.0000m 
   40.00000m -281.1633p   40.0000m 
   41.00000m -281.1633p   41.0000m 
   42.00000m -281.1633p   42.0000m 
   43.00000m -281.1633p   43.0000m 
   44.00000m -281.1633p   44.0000m 
   45.00000m -281.1633p   45.0000m 
   46.00000m -281.1633p   46.0000m 
   47.00000m -281.1633p   47.0000m 
   48.00000m -281.1633p   48.0000m 
   49.00000m -281.1633p   49.0000m 
   50.00000m -281.1633p   50.0000m 
   51.00000m -281.1633p   51.0000m 
   52.00000m -281.1633p   52.0000m 
   53.00000m -281.1633p   53.0000m 
   54.00000m -281.1633p   54.0000m 
   55.00000m -281.1633p   55.0000m 
   56.00000m -281.1633p   56.0000m 
   57.00000m -281.1633p   57.0000m 
   58.00000m -281.1633p   58.0000m 
   59.00000m -281.1633p   59.0000m 
   60.00000m -281.1633p   60.0000m 
   61.00000m -281.1633p   61.0000m 
   62.00000m -281.1633p   62.0000m 
   63.00000m -281.1633p   63.0000m 
   64.00000m -281.1633p   64.0000m 
   65.00000m -281.1633p   65.0000m 
   66.00000m -281.1633p   66.0000m 
   67.00000m -281.1633p   67.0000m 
   68.00000m -281.1633p   68.0000m 
   69.00000m -281.1633p   69.0000m 
   70.00000m -281.1633p   70.0000m 
   71.00000m -281.1633p   71.0000m 
   72.00000m -281.1633p   72.0000m 
   73.00000m -281.1633p   73.0000m 
   74.00000m -281.1633p   74.0000m 
   75.00000m -281.1633p   75.0000m 
   76.00000m -281.1633p   76.0000m 
   77.00000m -281.1633p   77.0000m 
   78.00000m -281.1633p   78.0000m 
   79.00000m -281.1633p   79.0000m 
   80.00000m -281.1633p   80.0000m 
   81.00000m -281.1633p   81.0000m 
   82.00000m -281.1633p   82.0000m 
   83.00000m -281.1633p   83.0000m 
   84.00000m -281.1633p   84.0000m 
   85.00000m -281.1633p   85.0000m 
   86.00000m -281.1633p   86.0000m 
   87.00000m -281.1633p   87.0000m 
   88.00000m -281.1633p   88.0000m 
   89.00000m -281.1633p   89.0000m 
   90.00000m -281.1633p   90.0000m 
   91.00000m -281.1633p   91.0000m 
   92.00000m -281.1633p   92.0000m 
   93.00000m -281.1633p   93.0000m 
   94.00000m -281.1633p   94.0000m 
   95.00000m -281.1633p   95.0000m 
   96.00000m -281.1633p   96.0000m 
   97.00000m -281.1633p   97.0000m 
   98.00000m -281.1633p   98.0000m 
   99.00000m -281.1633p   99.0000m 
  100.00000m -281.1633p  100.0000m 
  101.00000m -281.1633p  101.0000m 
  102.00000m -281.1633p  102.0000m 
  103.00000m -281.1633p  103.0000m 
  104.00000m -281.1633p  104.0000m 
  105.00000m -281.1633p  105.0000m 
  106.00000m -281.1633p  106.0000m 
  107.00000m -281.1633p  107.0000m 
  108.00000m -281.1633p  108.0000m 
  109.00000m -281.1634p  109.0000m 
  110.00000m -281.1634p  110.0000m 
  111.00000m -281.1634p  111.0000m 
  112.00000m -281.1634p  112.0000m 
  113.00000m -281.1634p  113.0000m 
  114.00000m -281.1634p  114.0000m 
  115.00000m -281.1634p  115.0000m 
  116.00000m -281.1634p  116.0000m 
  117.00000m -281.1634p  117.0000m 
  118.00000m -281.1634p  118.0000m 
  119.00000m -281.1634p  119.0000m 
  120.00000m -281.1634p  120.0000m 
  121.00000m -281.1634p  121.0000m 
  122.00000m -281.1634p  122.0000m 
  123.00000m -281.1634p  123.0000m 
  124.00000m -281.1634p  124.0000m 
  125.00000m -281.1634p  125.0000m 
  126.00000m -281.1634p  126.0000m 
  127.00000m -281.1634p  127.0000m 
  128.00000m -281.1634p  128.0000m 
  129.00000m -281.1634p  129.0000m 
  130.00000m -281.1634p  130.0000m 
  131.00000m -281.1634p  131.0000m 
  132.00000m -281.1634p  132.0000m 
  133.00000m -281.1634p  133.0000m 
  134.00000m -281.1634p  134.0000m 
  135.00000m -281.1634p  135.0000m 
  136.00000m -281.1634p  136.0000m 
  137.00000m -281.1634p  137.0000m 
  138.00000m -281.1634p  138.0000m 
  139.00000m -281.1634p  139.0000m 
  140.00000m -281.1634p  140.0000m 
  141.00000m -281.1634p  141.0000m 
  142.00000m -281.1634p  142.0000m 
  143.00000m -281.1634p  143.0000m 
  144.00000m -281.1634p  144.0000m 
  145.00000m -281.1634p  145.0000m 
  146.00000m -281.1634p  146.0000m 
  147.00000m -281.1634p  147.0000m 
  148.00000m -281.1634p  148.0000m 
  149.00000m -281.1634p  149.0000m 
  150.00000m -281.1634p  150.0000m 
  151.00000m -281.1634p  151.0000m 
  152.00000m -281.1635p  152.0000m 
  153.00000m -281.1635p  153.0000m 
  154.00000m -281.1635p  154.0000m 
  155.00000m -281.1635p  155.0000m 
  156.00000m -281.1635p  156.0000m 
  157.00000m -281.1635p  157.0000m 
  158.00000m -281.1635p  158.0000m 
  159.00000m -281.1635p  159.0000m 
  160.00000m -281.1635p  160.0000m 
  161.00000m -281.1635p  161.0000m 
  162.00000m -281.1635p  162.0000m 
  163.00000m -281.1635p  163.0000m 
  164.00000m -281.1635p  164.0000m 
  165.00000m -281.1635p  165.0000m 
  166.00000m -281.1635p  166.0000m 
  167.00000m -281.1635p  167.0000m 
  168.00000m -281.1636p  168.0000m 
  169.00000m -281.1636p  169.0000m 
  170.00000m -281.1636p  170.0000m 
  171.00000m -281.1636p  171.0000m 
  172.00000m -281.1636p  172.0000m 
  173.00000m -281.1636p  173.0000m 
  174.00000m -281.1636p  174.0000m 
  175.00000m -281.1636p  175.0000m 
  176.00000m -281.1636p  176.0000m 
  177.00000m -281.1636p  177.0000m 
  178.00000m -281.1637p  178.0000m 
  179.00000m -281.1637p  179.0000m 
  180.00000m -281.1637p  180.0000m 
  181.00000m -281.1637p  181.0000m 
  182.00000m -281.1637p  182.0000m 
  183.00000m -281.1637p  183.0000m 
  184.00000m -281.1637p  184.0000m 
  185.00000m -281.1637p  185.0000m 
  186.00000m -281.1638p  186.0000m 
  187.00000m -281.1638p  187.0000m 
  188.00000m -281.1638p  188.0000m 
  189.00000m -281.1638p  189.0000m 
  190.00000m -281.1638p  190.0000m 
  191.00000m -281.1639p  191.0000m 
  192.00000m -281.1639p  192.0000m 
  193.00000m -281.1639p  193.0000m 
  194.00000m -281.1639p  194.0000m 
  195.00000m -281.1639p  195.0000m 
  196.00000m -281.1640p  196.0000m 
  197.00000m -281.1640p  197.0000m 
  198.00000m -281.1640p  198.0000m 
  199.00000m -281.1640p  199.0000m 
  200.00000m -281.1641p  200.0000m 
  201.00000m -281.1641p  201.0000m 
  202.00000m -281.1641p  202.0000m 
  203.00000m -281.1641p  203.0000m 
  204.00000m -281.1642p  204.0000m 
  205.00000m -281.1642p  205.0000m 
  206.00000m -281.1642p  206.0000m 
  207.00000m -281.1643p  207.0000m 
  208.00000m -281.1643p  208.0000m 
  209.00000m -281.1643p  209.0000m 
  210.00000m -281.1644p  210.0000m 
  211.00000m -281.1644p  211.0000m 
  212.00000m -281.1645p  212.0000m 
  213.00000m -281.1645p  213.0000m 
  214.00000m -281.1645p  214.0000m 
  215.00000m -281.1646p  215.0000m 
  216.00000m -281.1646p  216.0000m 
  217.00000m -281.1647p  217.0000m 
  218.00000m -281.1647p  218.0000m 
  219.00000m -281.1648p  219.0000m 
  220.00000m -281.1648p  220.0000m 
  221.00000m -281.1649p  221.0000m 
  222.00000m -281.1650p  222.0000m 
  223.00000m -281.1650p  223.0000m 
  224.00000m -281.1651p  224.0000m 
  225.00000m -281.1651p  225.0000m 
  226.00000m -281.1652p  226.0000m 
  227.00000m -281.1653p  227.0000m 
  228.00000m -281.1654p  228.0000m 
  229.00000m -281.1654p  229.0000m 
  230.00000m -281.1655p  230.0000m 
  231.00000m -281.1656p  231.0000m 
  232.00000m -281.1657p  232.0000m 
  233.00000m -281.1658p  233.0000m 
  234.00000m -281.1658p  234.0000m 
  235.00000m -281.1659p  235.0000m 
  236.00000m -281.1660p  236.0000m 
  237.00000m -281.1661p  237.0000m 
  238.00000m -281.1662p  238.0000m 
  239.00000m -281.1663p  239.0000m 
  240.00000m -281.1665p  240.0000m 
  241.00000m -281.1666p  241.0000m 
  242.00000m -281.1667p  242.0000m 
  243.00000m -281.1668p  243.0000m 
  244.00000m -281.1669p  244.0000m 
  245.00000m -281.1671p  245.0000m 
  246.00000m -281.1672p  246.0000m 
  247.00000m -281.1674p  247.0000m 
  248.00000m -281.1675p  248.0000m 
  249.00000m -281.1677p  249.0000m 
  250.00000m -281.1678p  250.0000m 
  251.00000m -281.1680p  251.0000m 
  252.00000m -281.1682p  252.0000m 
  253.00000m -281.1683p  253.0000m 
  254.00000m -281.1685p  254.0000m 
  255.00000m -281.1687p  255.0000m 
  256.00000m -281.1689p  256.0000m 
  257.00000m -281.1691p  257.0000m 
  258.00000m -281.1693p  258.0000m 
  259.00000m -281.1695p  259.0000m 
  260.00000m -281.1698p  260.0000m 
  261.00000m -281.1700p  261.0000m 
  262.00000m -281.1702p  262.0000m 
  263.00000m -281.1705p  263.0000m 
  264.00000m -281.1708p  264.0000m 
  265.00000m -281.1710p  265.0000m 
  266.00000m -281.1713p  266.0000m 
  267.00000m -281.1716p  267.0000m 
  268.00000m -281.1719p  268.0000m 
  269.00000m -281.1722p  269.0000m 
  270.00000m -281.1726p  270.0000m 
  271.00000m -281.1729p  271.0000m 
  272.00000m -281.1732p  272.0000m 
  273.00000m -281.1736p  273.0000m 
  274.00000m -281.1740p  274.0000m 
  275.00000m -281.1744p  275.0000m 
  276.00000m -281.1748p  276.0000m 
  277.00000m -281.1752p  277.0000m 
  278.00000m -281.1756p  278.0000m 
  279.00000m -281.1761p  279.0000m 
  280.00000m -281.1765p  280.0000m 
  281.00000m -281.1770p  281.0000m 
  282.00000m -281.1775p  282.0000m 
  283.00000m -281.1780p  283.0000m 
  284.00000m -281.1786p  284.0000m 
  285.00000m -281.1791p  285.0000m 
  286.00000m -281.1797p  286.0000m 
  287.00000m -281.1803p  287.0000m 
  288.00000m -281.1809p  288.0000m 
  289.00000m -281.1816p  289.0000m 
  290.00000m -281.1822p  290.0000m 
  291.00000m -281.1829p  291.0000m 
  292.00000m -281.1836p  292.0000m 
  293.00000m -281.1844p  293.0000m 
  294.00000m -281.1852p  294.0000m 
  295.00000m -281.1859p  295.0000m 
  296.00000m -281.1868p  296.0000m 
  297.00000m -281.1876p  297.0000m 
  298.00000m -281.1885p  298.0000m 
  299.00000m -281.1894p  299.0000m 
  300.00000m -281.1904p  300.0000m 
  301.00000m -281.1914p  301.0000m 
  302.00000m -281.1924p  302.0000m 
  303.00000m -281.1934p  303.0000m 
  304.00000m -281.1945p  304.0000m 
  305.00000m -281.1957p  305.0000m 
  306.00000m -281.1968p  306.0000m 
  307.00000m -281.1981p  307.0000m 
  308.00000m -281.1993p  308.0000m 
  309.00000m -281.2006p  309.0000m 
  310.00000m -281.2020p  310.0000m 
  311.00000m -281.2034p  311.0000m 
  312.00000m -281.2048p  312.0000m 
  313.00000m -281.2063p  313.0000m 
  314.00000m -281.2079p  314.0000m 
  315.00000m -281.2095p  315.0000m 
  316.00000m -281.2112p  316.0000m 
  317.00000m -281.2129p  317.0000m 
  318.00000m -281.2147p  318.0000m 
  319.00000m -281.2166p  319.0000m 
  320.00000m -281.2185p  320.0000m 
  321.00000m -281.2205p  321.0000m 
  322.00000m -281.2226p  322.0000m 
  323.00000m -281.2247p  323.0000m 
  324.00000m -281.2270p  324.0000m 
  325.00000m -281.2293p  325.0000m 
  326.00000m -281.2316p  326.0000m 
  327.00000m -281.2341p  327.0000m 
  328.00000m -281.2367p  328.0000m 
  329.00000m -281.2393p  329.0000m 
  330.00000m -281.2421p  330.0000m 
  331.00000m -281.2449p  331.0000m 
  332.00000m -281.2479p  332.0000m 
  333.00000m -281.2509p  333.0000m 
  334.00000m -281.2541p  334.0000m 
  335.00000m -281.2574p  335.0000m 
  336.00000m -281.2608p  336.0000m 
  337.00000m -281.2643p  337.0000m 
  338.00000m -281.2679p  338.0000m 
  339.00000m -281.2717p  339.0000m 
  340.00000m -281.2756p  340.0000m 
  341.00000m -281.2797p  341.0000m 
  342.00000m -281.2839p  342.0000m 
  343.00000m -281.2882p  343.0000m 
  344.00000m -281.2927p  344.0000m 
  345.00000m -281.2974p  345.0000m 
  346.00000m -281.3022p  346.0000m 
  347.00000m -281.3072p  347.0000m 
  348.00000m -281.3124p  348.0000m 
  349.00000m -281.3177p  349.0000m 
  350.00000m -281.3233p  350.0000m 
  351.00000m -281.3290p  351.0000m 
  352.00000m -281.3350p  352.0000m 
  353.00000m -281.3412p  353.0000m 
  354.00000m -281.3476p  354.0000m 
  355.00000m -281.3542p  355.0000m 
  356.00000m -281.3610p  356.0000m 
  357.00000m -281.3681p  357.0000m 
  358.00000m -281.3755p  358.0000m 
  359.00000m -281.3831p  359.0000m 
  360.00000m -281.3910p  360.0000m 
  361.00000m -281.3992p  361.0000m 
  362.00000m -281.4076p  362.0000m 
  363.00000m -281.4164p  363.0000m 
  364.00000m -281.4255p  364.0000m 
  365.00000m -281.4349p  365.0000m 
  366.00000m -281.4446p  366.0000m 
  367.00000m -281.4547p  367.0000m 
  368.00000m -281.4651p  368.0000m 
  369.00000m -281.4759p  369.0000m 
  370.00000m -281.4871p  370.0000m 
  371.00000m -281.4987p  371.0000m 
  372.00000m -281.5107p  372.0000m 
  373.00000m -281.5232p  373.0000m 
  374.00000m -281.5360p  374.0000m 
  375.00000m -281.5494p  375.0000m 
  376.00000m -281.5632p  376.0000m 
  377.00000m -281.5775p  377.0000m 
  378.00000m -281.5923p  378.0000m 
  379.00000m -281.6076p  379.0000m 
  380.00000m -281.6235p  380.0000m 
  381.00000m -281.6399p  381.0000m 
  382.00000m -281.6569p  382.0000m 
  383.00000m -281.6745p  383.0000m 
  384.00000m -281.6927p  384.0000m 
  385.00000m -281.7116p  385.0000m 
  386.00000m -281.7312p  386.0000m 
  387.00000m -281.7514p  387.0000m 
  388.00000m -281.7724p  388.0000m 
  389.00000m -281.7941p  389.0000m 
  390.00000m -281.8165p  390.0000m 
  391.00000m -281.8398p  391.0000m 
  392.00000m -281.8639p  392.0000m 
  393.00000m -281.8888p  393.0000m 
  394.00000m -281.9146p  394.0000m 
  395.00000m -281.9414p  395.0000m 
  396.00000m -281.9690p  396.0000m 
  397.00000m -281.9977p  397.0000m 
  398.00000m -282.0273p  398.0000m 
  399.00000m -282.0580p  399.0000m 
  400.00000m -282.0898p  400.0000m 
  401.00000m -282.1227p  401.0000m 
  402.00000m -282.1567p  402.0000m 
  403.00000m -282.1920p  403.0000m 
  404.00000m -282.2285p  404.0000m 
  405.00000m -282.2663p  405.0000m 
  406.00000m -282.3054p  406.0000m 
  407.00000m -282.3459p  407.0000m 
  408.00000m -282.3878p  408.0000m 
  409.00000m -282.4311p  409.0000m 
  410.00000m -282.4760p  410.0000m 
  411.00000m -282.5225p  411.0000m 
  412.00000m -282.5706p  412.0000m 
  413.00000m -282.6204p  413.0000m 
  414.00000m -282.6720p  414.0000m 
  415.00000m -282.7253p  415.0000m 
  416.00000m -282.7805p  416.0000m 
  417.00000m -282.8377p  417.0000m 
  418.00000m -282.8968p  418.0000m 
  419.00000m -282.9581p  419.0000m 
  420.00000m -283.0214p  420.0000m 
  421.00000m -283.0870p  421.0000m 
  422.00000m -283.1549p  422.0000m 
  423.00000m -283.2252p  423.0000m 
  424.00000m -283.2979p  424.0000m 
  425.00000m -283.3731p  425.0000m 
  426.00000m -283.4510p  426.0000m 
  427.00000m -283.5316p  427.0000m 
  428.00000m -283.6150p  428.0000m 
  429.00000m -283.7013p  429.0000m 
  430.00000m -283.7906p  430.0000m 
  431.00000m -283.8831p  431.0000m 
  432.00000m -283.9787p  432.0000m 
  433.00000m -284.0777p  433.0000m 
  434.00000m -284.1802p  434.0000m 
  435.00000m -284.2862p  435.0000m 
  436.00000m -284.3959p  436.0000m 
  437.00000m -284.5094p  437.0000m 
  438.00000m -284.6268p  438.0000m 
  439.00000m -284.7484p  439.0000m 
  440.00000m -284.8741p  440.0000m 
  441.00000m -285.0042p  441.0000m 
  442.00000m -285.1389p  442.0000m 
  443.00000m -285.2782p  443.0000m 
  444.00000m -285.4223p  444.0000m 
  445.00000m -285.5715p  445.0000m 
  446.00000m -285.7258p  446.0000m 
  447.00000m -285.8854p  447.0000m 
  448.00000m -286.0506p  448.0000m 
  449.00000m -286.2215p  449.0000m 
  450.00000m -286.3984p  450.0000m 
  451.00000m -286.5813p  451.0000m 
  452.00000m -286.7705p  452.0000m 
  453.00000m -286.9663p  453.0000m 
  454.00000m -287.1689p  454.0000m 
  455.00000m -287.3784p  455.0000m 
  456.00000m -287.5952p  456.0000m 
  457.00000m -287.8195p  457.0000m 
  458.00000m -288.0515p  458.0000m 
  459.00000m -288.2915p  459.0000m 
  460.00000m -288.5397p  460.0000m 
  461.00000m -288.7965p  461.0000m 
  462.00000m -289.0622p  462.0000m 
  463.00000m -289.3370p  463.0000m 
  464.00000m -289.6212p  464.0000m 
  465.00000m -289.9152p  465.0000m 
  466.00000m -290.2193p  466.0000m 
  467.00000m -290.5339p  467.0000m 
  468.00000m -290.8592p  468.0000m 
  469.00000m -291.1958p  469.0000m 
  470.00000m -291.5438p  470.0000m 
  471.00000m -291.9038p  471.0000m 
  472.00000m -292.2761p  472.0000m 
  473.00000m -292.6612p  473.0000m 
  474.00000m -293.0595p  474.0000m 
  475.00000m -293.4713p  475.0000m 
  476.00000m -293.8973p  476.0000m 
  477.00000m -294.3379p  477.0000m 
  478.00000m -294.7934p  478.0000m 
  479.00000m -295.2646p  479.0000m 
  480.00000m -295.7518p  480.0000m 
  481.00000m -296.2556p  481.0000m 
  482.00000m -296.7767p  482.0000m 
  483.00000m -297.3154p  483.0000m 
  484.00000m -297.8726p  484.0000m 
  485.00000m -298.4487p  485.0000m 
  486.00000m -299.0444p  486.0000m 
  487.00000m -299.6604p  487.0000m 
  488.00000m -300.2973p  488.0000m 
  489.00000m -300.9558p  489.0000m 
  490.00000m -301.6367p  490.0000m 
  491.00000m -302.3408p  491.0000m 
  492.00000m -303.0687p  492.0000m 
  493.00000m -303.8213p  493.0000m 
  494.00000m -304.5993p  494.0000m 
  495.00000m -305.4038p  495.0000m 
  496.00000m -306.2355p  496.0000m 
  497.00000m -307.0953p  497.0000m 
  498.00000m -307.9841p  498.0000m 
  499.00000m -308.9031p  499.0000m 
  500.00000m -309.8530p  500.0000m 
  501.00000m -310.8350p  501.0000m 
  502.00000m -311.8502p  502.0000m 
  503.00000m -312.8996p  503.0000m 
  504.00000m -313.9843p  504.0000m 
  505.00000m -315.1056p  505.0000m 
  506.00000m -316.2646p  506.0000m 
  507.00000m -317.4626p  507.0000m 
  508.00000m -318.7009p  508.0000m 
  509.00000m -319.9808p  509.0000m 
  510.00000m -321.3036p  510.0000m 
  511.00000m -322.6709p  511.0000m 
  512.00000m -324.0840p  512.0000m 
  513.00000m -325.5444p  513.0000m 
  514.00000m -327.0538p  514.0000m 
  515.00000m -328.6138p  515.0000m 
  516.00000m -330.2259p  516.0000m 
  517.00000m -331.8919p  517.0000m 
  518.00000m -333.6136p  518.0000m 
  519.00000m -335.3927p  519.0000m 
  520.00000m -337.2313p  520.0000m 
  521.00000m -339.1311p  521.0000m 
  522.00000m -341.0943p  522.0000m 
  523.00000m -343.1229p  523.0000m 
  524.00000m -345.2190p  524.0000m 
  525.00000m -347.3848p  525.0000m 
  526.00000m -349.6225p  526.0000m 
  527.00000m -351.9347p  527.0000m 
  528.00000m -354.3235p  528.0000m 
  529.00000m -356.7917p  529.0000m 
  530.00000m -359.3416p  530.0000m 
  531.00000m -361.9760p  531.0000m 
  532.00000m -364.6976p  532.0000m 
  533.00000m -367.5092p  533.0000m 
  534.00000m -370.4138p  534.0000m 
  535.00000m -373.4143p  535.0000m 
  536.00000m -376.5139p  536.0000m 
  537.00000m -379.7157p  537.0000m 
  538.00000m -383.0230p  538.0000m 
  539.00000m -386.4393p  539.0000m 
  540.00000m -389.9680p  540.0000m 
  541.00000m -393.6128p  541.0000m 
  542.00000m -397.3773p  542.0000m 
  543.00000m -401.2655p  543.0000m 
  544.00000m -405.2813p  544.0000m 
  545.00000m -409.4287p  545.0000m 
  546.00000m -413.7120p  546.0000m 
  547.00000m -418.1355p  547.0000m 
  548.00000m -422.7037p  548.0000m 
  549.00000m -427.4213p  549.0000m 
  550.00000m -432.2929p  550.0000m 
  551.00000m -437.3235p  551.0000m 
  552.00000m -442.5181p  552.0000m 
  553.00000m -447.8820p  553.0000m 
  554.00000m -453.4205p  554.0000m 
  555.00000m -459.1392p  555.0000m 
  556.00000m -465.0437p  556.0000m 
  557.00000m -471.1399p  557.0000m 
  558.00000m -477.4340p  558.0000m 
  559.00000m -483.9320p  559.0000m 
  560.00000m -490.6406p  560.0000m 
  561.00000m -497.5662p  561.0000m 
  562.00000m -504.7158p  562.0000m 
  563.00000m -512.0964p  563.0000m 
  564.00000m -519.7152p  564.0000m 
  565.00000m -527.5797p  565.0000m 
  566.00000m -535.6975p  566.0000m 
  567.00000m -544.0767p  567.0000m 
  568.00000m -552.7254p  568.0000m 
  569.00000m -561.6519p  569.0000m 
  570.00000m -570.8650p  570.0000m 
  571.00000m -580.3736p  571.0000m 
  572.00000m -590.1869p  572.0000m 
  573.00000m -600.3143p  573.0000m 
  574.00000m -610.7656p  574.0000m 
  575.00000m -621.5508p  575.0000m 
  576.00000m -632.6802p  576.0000m 
  577.00000m -644.1646p  577.0000m 
  578.00000m -656.0148p  578.0000m 
  579.00000m -668.2421p  579.0000m 
  580.00000m -680.8582p  580.0000m 
  581.00000m -693.8750p  581.0000m 
  582.00000m -707.3047p  582.0000m 
  583.00000m -721.1602p  583.0000m 
  584.00000m -735.4544p  584.0000m 
  585.00000m -750.2007p  585.0000m 
  586.00000m -765.4129p  586.0000m 
  587.00000m -781.1053p  587.0000m 
  588.00000m -797.2926p  588.0000m 
  589.00000m -813.9896p  589.0000m 
  590.00000m -831.2120p  590.0000m 
  591.00000m -848.9757p  591.0000m 
  592.00000m -867.2971p  592.0000m 
  593.00000m -886.1930p  593.0000m 
  594.00000m -905.6808p  594.0000m 
  595.00000m -925.7784p  595.0000m 
  596.00000m -946.5041p  596.0000m 
  597.00000m -967.8769p  597.0000m 
  598.00000m -989.9161p  598.0000m 
  599.00000m   -1.0126n  599.0000m 
  600.00000m   -1.0361n  600.0000m 
  601.00000m   -1.0602n  601.0000m 
  602.00000m   -1.0851n  602.0000m 
  603.00000m   -1.1108n  603.0000m 
  604.00000m   -1.1373n  604.0000m 
  605.00000m   -1.1646n  605.0000m 
  606.00000m   -1.1927n  606.0000m 
  607.00000m   -1.2218n  607.0000m 
  608.00000m   -1.2517n  608.0000m 
  609.00000m   -1.2825n  609.0000m 
  610.00000m   -1.3142n  610.0000m 
  611.00000m   -1.3470n  611.0000m 
  612.00000m   -1.3807n  612.0000m 
  613.00000m   -1.4155n  613.0000m 
  614.00000m   -1.4514n  614.0000m 
  615.00000m   -1.4883n  615.0000m 
  616.00000m   -1.5264n  616.0000m 
  617.00000m   -1.5656n  617.0000m 
  618.00000m   -1.6060n  618.0000m 
  619.00000m   -1.6477n  619.0000m 
  620.00000m   -1.6906n  620.0000m 
  621.00000m   -1.7348n  621.0000m 
  622.00000m   -1.7803n  622.0000m 
  623.00000m   -1.8272n  623.0000m 
  624.00000m   -1.8756n  624.0000m 
  625.00000m   -1.9254n  625.0000m 
  626.00000m   -1.9767n  626.0000m 
  627.00000m   -2.0295n  627.0000m 
  628.00000m   -2.0839n  628.0000m 
  629.00000m   -2.1399n  629.0000m 
  630.00000m   -2.1977n  630.0000m 
  631.00000m   -2.2571n  631.0000m 
  632.00000m   -2.3183n  632.0000m 
  633.00000m   -2.3813n  633.0000m 
  634.00000m   -2.4463n  634.0000m 
  635.00000m   -2.5131n  635.0000m 
  636.00000m   -2.5819n  636.0000m 
  637.00000m   -2.6528n  637.0000m 
  638.00000m   -2.7257n  638.0000m 
  639.00000m   -2.8008n  639.0000m 
  640.00000m   -2.8781n  640.0000m 
  641.00000m   -2.9577n  641.0000m 
  642.00000m   -3.0396n  642.0000m 
  643.00000m   -3.1239n  643.0000m 
  644.00000m   -3.2107n  644.0000m 
  645.00000m   -3.3000n  645.0000m 
  646.00000m   -3.3919n  646.0000m 
  647.00000m   -3.4865n  647.0000m 
  648.00000m   -3.5838n  648.0000m 
  649.00000m   -3.6840n  649.0000m 
  650.00000m   -3.7870n  650.0000m 
  651.00000m   -3.8931n  651.0000m 
  652.00000m   -4.0022n  652.0000m 
  653.00000m   -4.1144n  653.0000m 
  654.00000m   -4.2299n  654.0000m 
  655.00000m   -4.3487n  655.0000m 
  656.00000m   -4.4708n  656.0000m 
  657.00000m   -4.5965n  657.0000m 
  658.00000m   -4.7258n  658.0000m 
  659.00000m   -4.8587n  659.0000m 
  660.00000m   -4.9954n  660.0000m 
  661.00000m   -5.1360n  661.0000m 
  662.00000m   -5.2806n  662.0000m 
  663.00000m   -5.4293n  663.0000m 
  664.00000m   -5.5821n  664.0000m 
  665.00000m   -5.7393n  665.0000m 
  666.00000m   -5.9009n  666.0000m 
  667.00000m   -6.0670n  667.0000m 
  668.00000m   -6.2378n  668.0000m 
  669.00000m   -6.4133n  669.0000m 
  670.00000m   -6.5937n  670.0000m 
  671.00000m   -6.7792n  671.0000m 
  672.00000m   -6.9698n  672.0000m 
  673.00000m   -7.1656n  673.0000m 
  674.00000m   -7.3669n  674.0000m 
  675.00000m   -7.5738n  675.0000m 
  676.00000m   -7.7863n  676.0000m 
  677.00000m   -8.0047n  677.0000m 
  678.00000m   -8.2290n  678.0000m 
  679.00000m   -8.4595n  679.0000m 
  680.00000m   -8.6963n  680.0000m 
  681.00000m   -8.9395n  681.0000m 
  682.00000m   -9.1893n  682.0000m 
  683.00000m   -9.4459n  683.0000m 
  684.00000m   -9.7095n  684.0000m 
  685.00000m   -9.9801n  685.0000m 
  686.00000m  -10.2581n  686.0000m 
  687.00000m  -10.5435n  687.0000m 
  688.00000m  -10.8365n  688.0000m 
  689.00000m  -11.1374n  689.0000m 
  690.00000m  -11.4462n  690.0000m 
  691.00000m  -11.7634n  691.0000m 
  692.00000m  -12.0889n  692.0000m 
  693.00000m  -12.4230n  693.0000m 
  694.00000m  -12.7659n  694.0000m 
  695.00000m  -13.1179n  695.0000m 
  696.00000m  -13.4791n  696.0000m 
  697.00000m  -13.8498n  697.0000m 
  698.00000m  -14.2302n  698.0000m 
  699.00000m  -14.6205n  699.0000m 
  700.00000m  -15.0209n  700.0000m 
  701.00000m  -15.4317n  701.0000m 
  702.00000m  -15.8531n  702.0000m 
  703.00000m  -16.2854n  703.0000m 
  704.00000m  -16.7287n  704.0000m 
  705.00000m  -17.1835n  705.0000m 
  706.00000m  -17.6499n  706.0000m 
  707.00000m  -18.1281n  707.0000m 
  708.00000m  -18.6186n  708.0000m 
  709.00000m  -19.1214n  709.0000m 
  710.00000m  -19.6370n  710.0000m 
  711.00000m  -20.1655n  711.0000m 
  712.00000m  -20.7074n  712.0000m 
  713.00000m  -21.2628n  713.0000m 
  714.00000m  -21.8320n  714.0000m 
  715.00000m  -22.4155n  715.0000m 
  716.00000m  -23.0134n  716.0000m 
  717.00000m  -23.6261n  717.0000m 
  718.00000m  -24.2539n  718.0000m 
  719.00000m  -24.8972n  719.0000m 
  720.00000m  -25.5562n  720.0000m 
  721.00000m  -26.2313n  721.0000m 
  722.00000m  -26.9229n  722.0000m 
  723.00000m  -27.6312n  723.0000m 
  724.00000m  -28.3567n  724.0000m 
  725.00000m  -29.0996n  725.0000m 
  726.00000m  -29.8604n  726.0000m 
  727.00000m  -30.6393n  727.0000m 
  728.00000m  -31.4369n  728.0000m 
  729.00000m  -32.2534n  729.0000m 
  730.00000m  -33.0892n  730.0000m 
  731.00000m  -33.9447n  731.0000m 
  732.00000m  -34.8204n  732.0000m 
  733.00000m  -35.7165n  733.0000m 
  734.00000m  -36.6335n  734.0000m 
  735.00000m  -37.5719n  735.0000m 
  736.00000m  -38.5319n  736.0000m 
  737.00000m  -39.5141n  737.0000m 
  738.00000m  -40.5188n  738.0000m 
  739.00000m  -41.5465n  739.0000m 
  740.00000m  -42.5976n  740.0000m 
  741.00000m  -43.6725n  741.0000m 
  742.00000m  -44.7717n  742.0000m 
  743.00000m  -45.8956n  743.0000m 
  744.00000m  -47.0446n  744.0000m 
  745.00000m  -48.2193n  745.0000m 
  746.00000m  -49.4200n  746.0000m 
  747.00000m  -50.6472n  747.0000m 
  748.00000m  -51.9014n  748.0000m 
  749.00000m  -53.1830n  749.0000m 
  750.00000m  -54.4925n  750.0000m 
  751.00000m  -55.8304n  751.0000m 
  752.00000m  -57.1972n  752.0000m 
  753.00000m  -58.5933n  753.0000m 
  754.00000m  -60.0192n  754.0000m 
  755.00000m  -61.4753n  755.0000m 
  756.00000m  -62.9622n  756.0000m 
  757.00000m  -64.4804n  757.0000m 
  758.00000m  -66.0303n  758.0000m 
  759.00000m  -67.6124n  759.0000m 
  760.00000m  -69.2273n  760.0000m 
  761.00000m  -70.8753n  761.0000m 
  762.00000m  -72.5570n  762.0000m 
  763.00000m  -74.2729n  763.0000m 
  764.00000m  -76.0234n  764.0000m 
  765.00000m  -77.8091n  765.0000m 
  766.00000m  -79.6304n  766.0000m 
  767.00000m  -81.4878n  767.0000m 
  768.00000m  -83.3818n  768.0000m 
  769.00000m  -85.3129n  769.0000m 
  770.00000m  -87.2815n  770.0000m 
  771.00000m  -89.2882n  771.0000m 
  772.00000m  -91.3333n  772.0000m 
  773.00000m  -93.4174n  773.0000m 
  774.00000m  -95.5410n  774.0000m 
  775.00000m  -97.7044n  775.0000m 
  776.00000m  -99.9081n  776.0000m 
  777.00000m -102.1527n  777.0000m 
  778.00000m -104.4384n  778.0000m 
  779.00000m -106.7658n  779.0000m 
  780.00000m -109.1353n  780.0000m 
  781.00000m -111.5472n  781.0000m 
  782.00000m -114.0021n  782.0000m 
  783.00000m -116.5002n  783.0000m 
  784.00000m -119.0420n  784.0000m 
  785.00000m -121.6280n  785.0000m 
  786.00000m -124.2583n  786.0000m 
  787.00000m -126.9335n  787.0000m 
  788.00000m -129.6538n  788.0000m 
  789.00000m -132.4196n  789.0000m 
  790.00000m -135.2313n  790.0000m 
  791.00000m -138.0890n  791.0000m 
  792.00000m -140.9932n  792.0000m 
  793.00000m -143.9441n  793.0000m 
  794.00000m -146.9420n  794.0000m 
  795.00000m -149.9872n  795.0000m 
  796.00000m -153.0798n  796.0000m 
  797.00000m -156.2202n  797.0000m 
  798.00000m -159.4086n  798.0000m 
  799.00000m -162.6450n  799.0000m 
  800.00000m -165.9299n  800.0000m 
  801.00000m -169.2632n  801.0000m 
  802.00000m -172.6452n  802.0000m 
  803.00000m -176.0760n  803.0000m 
  804.00000m -179.5558n  804.0000m 
  805.00000m -183.0846n  805.0000m 
  806.00000m -186.6625n  806.0000m 
  807.00000m -190.2897n  807.0000m 
  808.00000m -193.9662n  808.0000m 
  809.00000m -197.6921n  809.0000m 
  810.00000m -201.4674n  810.0000m 
  811.00000m -205.2921n  811.0000m 
  812.00000m -209.1663n  812.0000m 
  813.00000m -213.0900n  813.0000m 
  814.00000m -217.0631n  814.0000m 
  815.00000m -221.0857n  815.0000m 
  816.00000m -225.1578n  816.0000m 
  817.00000m -229.2793n  817.0000m 
  818.00000m -233.4503n  818.0000m 
  819.00000m -237.6706n  819.0000m 
  820.00000m -241.9402n  820.0000m 
  821.00000m -246.2592n  821.0000m 
  822.00000m -250.6274n  822.0000m 
  823.00000m -255.0449n  823.0000m 
  824.00000m -259.5115n  824.0000m 
  825.00000m -264.0273n  825.0000m 
  826.00000m -268.5923n  826.0000m 
  827.00000m -273.2065n  827.0000m 
  828.00000m -277.8697n  828.0000m 
  829.00000m -282.5822n  829.0000m 
  830.00000m -287.3438n  830.0000m 
  831.00000m -292.1545n  831.0000m 
  832.00000m -297.0146n  832.0000m 
  833.00000m -301.9240n  833.0000m 
  834.00000m -306.8828n  834.0000m 
  835.00000m -311.8911n  835.0000m 
  836.00000m -316.9491n  836.0000m 
  837.00000m -322.0569n  837.0000m 
  838.00000m -327.2148n  838.0000m 
  839.00000m -332.4229n  839.0000m 
  840.00000m -337.6814n  840.0000m 
  841.00000m -342.9907n  841.0000m 
  842.00000m -348.3510n  842.0000m 
  843.00000m -353.7627n  843.0000m 
  844.00000m -359.2262n  844.0000m 
  845.00000m -364.7418n  845.0000m 
  846.00000m -370.3100n  846.0000m 
  847.00000m -375.9311n  847.0000m 
  848.00000m -381.6059n  848.0000m 
  849.00000m -387.3347n  849.0000m 
  850.00000m -393.1181n  850.0000m 
  851.00000m -398.9567n  851.0000m 
  852.00000m -404.8512n  852.0000m 
  853.00000m -410.8022n  853.0000m 
  854.00000m -416.8104n  854.0000m 
  855.00000m -422.8766n  855.0000m 
  856.00000m -429.0014n  856.0000m 
  857.00000m -435.1858n  857.0000m 
  858.00000m -441.4304n  858.0000m 
  859.00000m -447.7362n  859.0000m 
  860.00000m -454.1039n  860.0000m 
  861.00000m -460.5346n  861.0000m 
  862.00000m -467.0291n  862.0000m 
  863.00000m -473.5884n  863.0000m 
  864.00000m -480.2134n  864.0000m 
  865.00000m -486.9051n  865.0000m 
  866.00000m -493.6646n  866.0000m 
  867.00000m -500.4928n  867.0000m 
  868.00000m -507.3909n  868.0000m 
  869.00000m -514.3598n  869.0000m 
  870.00000m -521.4006n  870.0000m 
  871.00000m -528.5145n  871.0000m 
  872.00000m -535.7025n  872.0000m 
  873.00000m -542.9658n  873.0000m 
  874.00000m -550.3054n  874.0000m 
  875.00000m -557.7226n  875.0000m 
  876.00000m -565.2185n  876.0000m 
  877.00000m -572.7943n  877.0000m 
  878.00000m -580.4510n  878.0000m 
  879.00000m -588.1899n  879.0000m 
  880.00000m -596.0122n  880.0000m 
  881.00000m -603.9191n  881.0000m 
  882.00000m -611.9117n  882.0000m 
  883.00000m -619.9913n  883.0000m 
  884.00000m -628.1590n  884.0000m 
  885.00000m -636.4161n  885.0000m 
  886.00000m -644.7638n  886.0000m 
  887.00000m -653.2033n  887.0000m 
  888.00000m -661.7358n  888.0000m 
  889.00000m -670.3625n  889.0000m 
  890.00000m -679.0848n  890.0000m 
  891.00000m -687.9037n  891.0000m 
  892.00000m -696.8205n  892.0000m 
  893.00000m -705.8366n  893.0000m 
  894.00000m -714.9530n  894.0000m 
  895.00000m -724.1710n  895.0000m 
  896.00000m -733.4920n  896.0000m 
  897.00000m -742.9170n  897.0000m 
  898.00000m -752.4474n  898.0000m 
  899.00000m -762.0843n  899.0000m 
  900.00000m -771.8291n  900.0000m 
  901.00000m -781.6830n  901.0000m 
  902.00000m -791.6472n  902.0000m 
  903.00000m -801.7230n  903.0000m 
  904.00000m -811.9116n  904.0000m 
  905.00000m -822.2142n  905.0000m 
  906.00000m -832.6322n  906.0000m 
  907.00000m -843.1667n  907.0000m 
  908.00000m -853.8190n  908.0000m 
  909.00000m -864.5904n  909.0000m 
  910.00000m -875.4821n  910.0000m 
  911.00000m -886.4954n  911.0000m 
  912.00000m -897.6315n  912.0000m 
  913.00000m -908.8917n  913.0000m 
  914.00000m -920.2772n  914.0000m 
  915.00000m -931.7893n  915.0000m 
  916.00000m -943.4292n  916.0000m 
  917.00000m -955.1982n  917.0000m 
  918.00000m -967.0976n  918.0000m 
  919.00000m -979.1287n  919.0000m 
  920.00000m -991.2925n  920.0000m 
  921.00000m   -1.0036u  921.0000m 
  922.00000m   -1.0160u  922.0000m 
  923.00000m   -1.0286u  923.0000m 
  924.00000m   -1.0413u  924.0000m 
  925.00000m   -1.0541u  925.0000m 
  926.00000m   -1.0671u  926.0000m 
  927.00000m   -1.0803u  927.0000m 
  928.00000m   -1.0935u  928.0000m 
  929.00000m   -1.1070u  929.0000m 
  930.00000m   -1.1205u  930.0000m 
  931.00000m   -1.1342u  931.0000m 
  932.00000m   -1.1481u  932.0000m 
  933.00000m   -1.1621u  933.0000m 
  934.00000m   -1.1762u  934.0000m 
  935.00000m   -1.1906u  935.0000m 
  936.00000m   -1.2050u  936.0000m 
  937.00000m   -1.2196u  937.0000m 
  938.00000m   -1.2344u  938.0000m 
  939.00000m   -1.2493u  939.0000m 
  940.00000m   -1.2644u  940.0000m 
  941.00000m   -1.2797u  941.0000m 
  942.00000m   -1.2951u  942.0000m 
  943.00000m   -1.3106u  943.0000m 
  944.00000m   -1.3264u  944.0000m 
  945.00000m   -1.3423u  945.0000m 
  946.00000m   -1.3583u  946.0000m 
  947.00000m   -1.3746u  947.0000m 
  948.00000m   -1.3910u  948.0000m 
  949.00000m   -1.4075u  949.0000m 
  950.00000m   -1.4243u  950.0000m 
  951.00000m   -1.4412u  951.0000m 
  952.00000m   -1.4582u  952.0000m 
  953.00000m   -1.4755u  953.0000m 
  954.00000m   -1.4929u  954.0000m 
  955.00000m   -1.5105u  955.0000m 
  956.00000m   -1.5283u  956.0000m 
  957.00000m   -1.5463u  957.0000m 
  958.00000m   -1.5644u  958.0000m 
  959.00000m   -1.5828u  959.0000m 
  960.00000m   -1.6013u  960.0000m 
  961.00000m   -1.6200u  961.0000m 
  962.00000m   -1.6388u  962.0000m 
  963.00000m   -1.6579u  963.0000m 
  964.00000m   -1.6772u  964.0000m 
  965.00000m   -1.6966u  965.0000m 
  966.00000m   -1.7162u  966.0000m 
  967.00000m   -1.7360u  967.0000m 
  968.00000m   -1.7561u  968.0000m 
  969.00000m   -1.7763u  969.0000m 
  970.00000m   -1.7967u  970.0000m 
  971.00000m   -1.8173u  971.0000m 
  972.00000m   -1.8381u  972.0000m 
  973.00000m   -1.8591u  973.0000m 
  974.00000m   -1.8802u  974.0000m 
  975.00000m   -1.9016u  975.0000m 
  976.00000m   -1.9232u  976.0000m 
  977.00000m   -1.9450u  977.0000m 
  978.00000m   -1.9670u  978.0000m 
  979.00000m   -1.9892u  979.0000m 
  980.00000m   -2.0116u  980.0000m 
  981.00000m   -2.0343u  981.0000m 
  982.00000m   -2.0571u  982.0000m 
  983.00000m   -2.0801u  983.0000m 
  984.00000m   -2.1033u  984.0000m 
  985.00000m   -2.1268u  985.0000m 
  986.00000m   -2.1504u  986.0000m 
  987.00000m   -2.1743u  987.0000m 
  988.00000m   -2.1984u  988.0000m 
  989.00000m   -2.2227u  989.0000m 
  990.00000m   -2.2472u  990.0000m 
  991.00000m   -2.2720u  991.0000m 
  992.00000m   -2.2969u  992.0000m 
  993.00000m   -2.3221u  993.0000m 
  994.00000m   -2.3475u  994.0000m 
  995.00000m   -2.3731u  995.0000m 
  996.00000m   -2.3989u  996.0000m 
  997.00000m   -2.4249u  997.0000m 
  998.00000m   -2.4512u  998.0000m 
  999.00000m   -2.4777u  999.0000m 
    1.00000    -2.5044u    1.0000  
y

          ***** job concluded
1****** HSPICE -- O-2018.09-SP2 win64 (Feb 25 2019) ******                      
 ******  
 

 ****** job statistics summary tnom=  25.000 temp=  25.000 ******

  ******  HSPICE Threads Information  ******

  Command Line Threads Count :     1
  Available CPU Count        :     8
  Actual Threads Count       :     1


  ******  Circuit Statistics  ******
  # nodes       =       7 # elements   =       3
  # resistors   =       0 # capacitors =       0 # inductors   =       0
  # mutual_inds =       0 # vccs       =       0 # vcvs        =       0
  # cccs        =       0 # ccvs       =       0 # volt_srcs   =       2
  # curr_srcs   =       0 # diodes     =       0 # bjts        =       0
  # jfets       =       0 # mosfets    =       1 # U elements  =       0
  # T elements  =       0 # W elements =       0 # B elements  =       0
  # S elements  =       0 # P elements =       0 # va device   =       0
  # vector_srcs =       0 # N elements =       0


  ******  Runtime Statistics (seconds)  ******

  analysis           time    # points   tot. iter  conv.iter
  op point           0.00           1           0
  dc sweep           0.04        1001        2004
  readin             0.01
  errchk             0.00
  setup              0.00
  output             0.00


           peak memory used         61.75 megabytes
           total cpu time            0.05 seconds
           total elapsed time        0.08 seconds
           job started at     23:56:51 11/02/2021
           job ended   at     23:56:51 11/02/2021


  
      

Element variations(Local):   element              parameter
 *****************************************************************
 ******  option summary
 ******
 runlvl  = 3         bypass  = 2.0000    
  **warning** negative-mos conductance =      0:m1               iter=    2
 vds,vgs,vbs =          0.897         0.097        0.8903
  gm,gds,gmbs,ids=     2.686E-06     2.235E-07    -2.002E-10     1.978E-07
 ******
 

 ****** dc transfer curves tnom=  25.000 temp=  25.000 ******
x

 volt         current    voltage   
             m1         vin        
    0.       -443.1893p    0.      
    1.00000m -443.1893p    1.0000m 
    2.00000m -443.1893p    2.0000m 
    3.00000m -443.1893p    3.0000m 
    4.00000m -443.1893p    4.0000m 
    5.00000m -443.1893p    5.0000m 
    6.00000m -443.1893p    6.0000m 
    7.00000m -443.1893p    7.0000m 
    8.00000m -443.1893p    8.0000m 
    9.00000m -443.1893p    9.0000m 
   10.00000m -443.1893p   10.0000m 
   11.00000m -443.1893p   11.0000m 
   12.00000m -443.1893p   12.0000m 
   13.00000m -443.1893p   13.0000m 
   14.00000m -443.1893p   14.0000m 
   15.00000m -443.1893p   15.0000m 
   16.00000m -443.1893p   16.0000m 
   17.00000m -443.1893p   17.0000m 
   18.00000m -443.1893p   18.0000m 
   19.00000m -443.1893p   19.0000m 
   20.00000m -443.1893p   20.0000m 
   21.00000m -443.1893p   21.0000m 
   22.00000m -443.1893p   22.0000m 
   23.00000m -443.1893p   23.0000m 
   24.00000m -443.1893p   24.0000m 
   25.00000m -443.1893p   25.0000m 
   26.00000m -443.1893p   26.0000m 
   27.00000m -443.1893p   27.0000m 
   28.00000m -443.1893p   28.0000m 
   29.00000m -443.1893p   29.0000m 
   30.00000m -443.1893p   30.0000m 
   31.00000m -443.1893p   31.0000m 
   32.00000m -443.1893p   32.0000m 
   33.00000m -443.1893p   33.0000m 
   34.00000m -443.1893p   34.0000m 
   35.00000m -443.1893p   35.0000m 
   36.00000m -443.1893p   36.0000m 
   37.00000m -443.1893p   37.0000m 
   38.00000m -443.1893p   38.0000m 
   39.00000m -443.1893p   39.0000m 
   40.00000m -443.1893p   40.0000m 
   41.00000m -443.1893p   41.0000m 
   42.00000m -443.1893p   42.0000m 
   43.00000m -443.1893p   43.0000m 
   44.00000m -443.1893p   44.0000m 
   45.00000m -443.1893p   45.0000m 
   46.00000m -443.1893p   46.0000m 
   47.00000m -443.1893p   47.0000m 
   48.00000m -443.1893p   48.0000m 
   49.00000m -443.1893p   49.0000m 
   50.00000m -443.1893p   50.0000m 
   51.00000m -443.1893p   51.0000m 
   52.00000m -443.1893p   52.0000m 
   53.00000m -443.1893p   53.0000m 
   54.00000m -443.1893p   54.0000m 
   55.00000m -443.1893p   55.0000m 
   56.00000m -443.1893p   56.0000m 
   57.00000m -443.1893p   57.0000m 
   58.00000m -443.1893p   58.0000m 
   59.00000m -443.1893p   59.0000m 
   60.00000m -443.1893p   60.0000m 
   61.00000m -443.1893p   61.0000m 
   62.00000m -443.1893p   62.0000m 
   63.00000m -443.1893p   63.0000m 
   64.00000m -443.1893p   64.0000m 
   65.00000m -443.1893p   65.0000m 
   66.00000m -443.1893p   66.0000m 
   67.00000m -443.1893p   67.0000m 
   68.00000m -443.1893p   68.0000m 
   69.00000m -443.1893p   69.0000m 
   70.00000m -443.1893p   70.0000m 
   71.00000m -443.1893p   71.0000m 
   72.00000m -443.1893p   72.0000m 
   73.00000m -443.1893p   73.0000m 
   74.00000m -443.1893p   74.0000m 
   75.00000m -443.1893p   75.0000m 
   76.00000m -443.1893p   76.0000m 
   77.00000m -443.1893p   77.0000m 
   78.00000m -443.1893p   78.0000m 
   79.00000m -443.1893p   79.0000m 
   80.00000m -443.1893p   80.0000m 
   81.00000m -443.1893p   81.0000m 
   82.00000m -443.1893p   82.0000m 
   83.00000m -443.1893p   83.0000m 
   84.00000m -443.1893p   84.0000m 
   85.00000m -443.1893p   85.0000m 
   86.00000m -443.1893p   86.0000m 
   87.00000m -443.1893p   87.0000m 
   88.00000m -443.1893p   88.0000m 
   89.00000m -443.1893p   89.0000m 
   90.00000m -443.1893p   90.0000m 
   91.00000m -443.1893p   91.0000m 
   92.00000m -443.1893p   92.0000m 
   93.00000m -443.1893p   93.0000m 
   94.00000m -443.1893p   94.0000m 
   95.00000m -443.1893p   95.0000m 
   96.00000m -443.1893p   96.0000m 
   97.00000m -443.1893p   97.0000m 
   98.00000m -443.1893p   98.0000m 
   99.00000m -443.1893p   99.0000m 
  100.00000m -443.1893p  100.0000m 
  101.00000m -443.1893p  101.0000m 
  102.00000m -443.1893p  102.0000m 
  103.00000m -443.1893p  103.0000m 
  104.00000m -443.1893p  104.0000m 
  105.00000m -443.1893p  105.0000m 
  106.00000m -443.1893p  106.0000m 
  107.00000m -443.1893p  107.0000m 
  108.00000m -443.1893p  108.0000m 
  109.00000m -443.1893p  109.0000m 
  110.00000m -443.1893p  110.0000m 
  111.00000m -443.1893p  111.0000m 
  112.00000m -443.1893p  112.0000m 
  113.00000m -443.1893p  113.0000m 
  114.00000m -443.1893p  114.0000m 
  115.00000m -443.1893p  115.0000m 
  116.00000m -443.1893p  116.0000m 
  117.00000m -443.1893p  117.0000m 
  118.00000m -443.1893p  118.0000m 
  119.00000m -443.1893p  119.0000m 
  120.00000m -443.1893p  120.0000m 
  121.00000m -443.1893p  121.0000m 
  122.00000m -443.1893p  122.0000m 
  123.00000m -443.1893p  123.0000m 
  124.00000m -443.1893p  124.0000m 
  125.00000m -443.1893p  125.0000m 
  126.00000m -443.1893p  126.0000m 
  127.00000m -443.1893p  127.0000m 
  128.00000m -443.1893p  128.0000m 
  129.00000m -443.1893p  129.0000m 
  130.00000m -443.1893p  130.0000m 
  131.00000m -443.1893p  131.0000m 
  132.00000m -443.1893p  132.0000m 
  133.00000m -443.1893p  133.0000m 
  134.00000m -443.1893p  134.0000m 
  135.00000m -443.1893p  135.0000m 
  136.00000m -443.1893p  136.0000m 
  137.00000m -443.1893p  137.0000m 
  138.00000m -443.1893p  138.0000m 
  139.00000m -443.1893p  139.0000m 
  140.00000m -443.1893p  140.0000m 
  141.00000m -443.1893p  141.0000m 
  142.00000m -443.1893p  142.0000m 
  143.00000m -443.1893p  143.0000m 
  144.00000m -443.1893p  144.0000m 
  145.00000m -443.1893p  145.0000m 
  146.00000m -443.1893p  146.0000m 
  147.00000m -443.1893p  147.0000m 
  148.00000m -443.1893p  148.0000m 
  149.00000m -443.1893p  149.0000m 
  150.00000m -443.1893p  150.0000m 
  151.00000m -443.1893p  151.0000m 
  152.00000m -443.1893p  152.0000m 
  153.00000m -443.1893p  153.0000m 
  154.00000m -443.1893p  154.0000m 
  155.00000m -443.1893p  155.0000m 
  156.00000m -443.1893p  156.0000m 
  157.00000m -443.1893p  157.0000m 
  158.00000m -443.1893p  158.0000m 
  159.00000m -443.1893p  159.0000m 
  160.00000m -443.1893p  160.0000m 
  161.00000m -443.1893p  161.0000m 
  162.00000m -443.1893p  162.0000m 
  163.00000m -443.1893p  163.0000m 
  164.00000m -443.1893p  164.0000m 
  165.00000m -443.1893p  165.0000m 
  166.00000m -443.1893p  166.0000m 
  167.00000m -443.1893p  167.0000m 
  168.00000m -443.1893p  168.0000m 
  169.00000m -443.1893p  169.0000m 
  170.00000m -443.1893p  170.0000m 
  171.00000m -443.1893p  171.0000m 
  172.00000m -443.1893p  172.0000m 
  173.00000m -443.1893p  173.0000m 
  174.00000m -443.1893p  174.0000m 
  175.00000m -443.1893p  175.0000m 
  176.00000m -443.1893p  176.0000m 
  177.00000m -443.1893p  177.0000m 
  178.00000m -443.1893p  178.0000m 
  179.00000m -443.1893p  179.0000m 
  180.00000m -443.1893p  180.0000m 
  181.00000m -443.1893p  181.0000m 
  182.00000m -443.1893p  182.0000m 
  183.00000m -443.1893p  183.0000m 
  184.00000m -443.1893p  184.0000m 
  185.00000m -443.1893p  185.0000m 
  186.00000m -443.1893p  186.0000m 
  187.00000m -443.1893p  187.0000m 
  188.00000m -443.1893p  188.0000m 
  189.00000m -443.1893p  189.0000m 
  190.00000m -443.1893p  190.0000m 
  191.00000m -443.1893p  191.0000m 
  192.00000m -443.1893p  192.0000m 
  193.00000m -443.1893p  193.0000m 
  194.00000m -443.1893p  194.0000m 
  195.00000m -443.1893p  195.0000m 
  196.00000m -443.1893p  196.0000m 
  197.00000m -443.1893p  197.0000m 
  198.00000m -443.1893p  198.0000m 
  199.00000m -443.1893p  199.0000m 
  200.00000m -443.1893p  200.0000m 
  201.00000m -443.1893p  201.0000m 
  202.00000m -443.1893p  202.0000m 
  203.00000m -443.1893p  203.0000m 
  204.00000m -443.1893p  204.0000m 
  205.00000m -443.1893p  205.0000m 
  206.00000m -443.1893p  206.0000m 
  207.00000m -443.1893p  207.0000m 
  208.00000m -443.1894p  208.0000m 
  209.00000m -443.1894p  209.0000m 
  210.00000m -443.1894p  210.0000m 
  211.00000m -443.1894p  211.0000m 
  212.00000m -443.1894p  212.0000m 
  213.00000m -443.1894p  213.0000m 
  214.00000m -443.1894p  214.0000m 
  215.00000m -443.1894p  215.0000m 
  216.00000m -443.1894p  216.0000m 
  217.00000m -443.1894p  217.0000m 
  218.00000m -443.1894p  218.0000m 
  219.00000m -443.1894p  219.0000m 
  220.00000m -443.1894p  220.0000m 
  221.00000m -443.1894p  221.0000m 
  222.00000m -443.1894p  222.0000m 
  223.00000m -443.1894p  223.0000m 
  224.00000m -443.1894p  224.0000m 
  225.00000m -443.1894p  225.0000m 
  226.00000m -443.1894p  226.0000m 
  227.00000m -443.1894p  227.0000m 
  228.00000m -443.1894p  228.0000m 
  229.00000m -443.1894p  229.0000m 
  230.00000m -443.1894p  230.0000m 
  231.00000m -443.1894p  231.0000m 
  232.00000m -443.1895p  232.0000m 
  233.00000m -443.1895p  233.0000m 
  234.00000m -443.1895p  234.0000m 
  235.00000m -443.1895p  235.0000m 
  236.00000m -443.1895p  236.0000m 
  237.00000m -443.1895p  237.0000m 
  238.00000m -443.1895p  238.0000m 
  239.00000m -443.1895p  239.0000m 
  240.00000m -443.1895p  240.0000m 
  241.00000m -443.1895p  241.0000m 
  242.00000m -443.1895p  242.0000m 
  243.00000m -443.1895p  243.0000m 
  244.00000m -443.1895p  244.0000m 
  245.00000m -443.1896p  245.0000m 
  246.00000m -443.1896p  246.0000m 
  247.00000m -443.1896p  247.0000m 
  248.00000m -443.1896p  248.0000m 
  249.00000m -443.1896p  249.0000m 
  250.00000m -443.1896p  250.0000m 
  251.00000m -443.1896p  251.0000m 
  252.00000m -443.1896p  252.0000m 
  253.00000m -443.1896p  253.0000m 
  254.00000m -443.1897p  254.0000m 
  255.00000m -443.1897p  255.0000m 
  256.00000m -443.1897p  256.0000m 
  257.00000m -443.1897p  257.0000m 
  258.00000m -443.1897p  258.0000m 
  259.00000m -443.1897p  259.0000m 
  260.00000m -443.1898p  260.0000m 
  261.00000m -443.1898p  261.0000m 
  262.00000m -443.1898p  262.0000m 
  263.00000m -443.1898p  263.0000m 
  264.00000m -443.1898p  264.0000m 
  265.00000m -443.1899p  265.0000m 
  266.00000m -443.1899p  266.0000m 
  267.00000m -443.1899p  267.0000m 
  268.00000m -443.1899p  268.0000m 
  269.00000m -443.1899p  269.0000m 
  270.00000m -443.1900p  270.0000m 
  271.00000m -443.1900p  271.0000m 
  272.00000m -443.1900p  272.0000m 
  273.00000m -443.1900p  273.0000m 
  274.00000m -443.1901p  274.0000m 
  275.00000m -443.1901p  275.0000m 
  276.00000m -443.1901p  276.0000m 
  277.00000m -443.1902p  277.0000m 
  278.00000m -443.1902p  278.0000m 
  279.00000m -443.1902p  279.0000m 
  280.00000m -443.1903p  280.0000m 
  281.00000m -443.1903p  281.0000m 
  282.00000m -443.1903p  282.0000m 
  283.00000m -443.1904p  283.0000m 
  284.00000m -443.1904p  284.0000m 
  285.00000m -443.1905p  285.0000m 
  286.00000m -443.1905p  286.0000m 
  287.00000m -443.1906p  287.0000m 
  288.00000m -443.1906p  288.0000m 
  289.00000m -443.1907p  289.0000m 
  290.00000m -443.1907p  290.0000m 
  291.00000m -443.1908p  291.0000m 
  292.00000m -443.1908p  292.0000m 
  293.00000m -443.1909p  293.0000m 
  294.00000m -443.1909p  294.0000m 
  295.00000m -443.1910p  295.0000m 
  296.00000m -443.1911p  296.0000m 
  297.00000m -443.1911p  297.0000m 
  298.00000m -443.1912p  298.0000m 
  299.00000m -443.1913p  299.0000m 
  300.00000m -443.1913p  300.0000m 
  301.00000m -443.1914p  301.0000m 
  302.00000m -443.1915p  302.0000m 
  303.00000m -443.1916p  303.0000m 
  304.00000m -443.1917p  304.0000m 
  305.00000m -443.1917p  305.0000m 
  306.00000m -443.1918p  306.0000m 
  307.00000m -443.1919p  307.0000m 
  308.00000m -443.1920p  308.0000m 
  309.00000m -443.1921p  309.0000m 
  310.00000m -443.1922p  310.0000m 
  311.00000m -443.1923p  311.0000m 
  312.00000m -443.1925p  312.0000m 
  313.00000m -443.1926p  313.0000m 
  314.00000m -443.1927p  314.0000m 
  315.00000m -443.1928p  315.0000m 
  316.00000m -443.1930p  316.0000m 
  317.00000m -443.1931p  317.0000m 
  318.00000m -443.1932p  318.0000m 
  319.00000m -443.1934p  319.0000m 
  320.00000m -443.1935p  320.0000m 
  321.00000m -443.1937p  321.0000m 
  322.00000m -443.1939p  322.0000m 
  323.00000m -443.1940p  323.0000m 
  324.00000m -443.1942p  324.0000m 
  325.00000m -443.1944p  325.0000m 
  326.00000m -443.1946p  326.0000m 
  327.00000m -443.1948p  327.0000m 
  328.00000m -443.1950p  328.0000m 
  329.00000m -443.1952p  329.0000m 
  330.00000m -443.1954p  330.0000m 
  331.00000m -443.1956p  331.0000m 
  332.00000m -443.1959p  332.0000m 
  333.00000m -443.1961p  333.0000m 
  334.00000m -443.1963p  334.0000m 
  335.00000m -443.1966p  335.0000m 
  336.00000m -443.1969p  336.0000m 
  337.00000m -443.1972p  337.0000m 
  338.00000m -443.1974p  338.0000m 
  339.00000m -443.1978p  339.0000m 
  340.00000m -443.1981p  340.0000m 
  341.00000m -443.1984p  341.0000m 
  342.00000m -443.1987p  342.0000m 
  343.00000m -443.1991p  343.0000m 
  344.00000m -443.1994p  344.0000m 
  345.00000m -443.1998p  345.0000m 
  346.00000m -443.2002p  346.0000m 
  347.00000m -443.2006p  347.0000m 
  348.00000m -443.2010p  348.0000m 
  349.00000m -443.2014p  349.0000m 
  350.00000m -443.2019p  350.0000m 
  351.00000m -443.2024p  351.0000m 
  352.00000m -443.2028p  352.0000m 
  353.00000m -443.2033p  353.0000m 
  354.00000m -443.2039p  354.0000m 
  355.00000m -443.2044p  355.0000m 
  356.00000m -443.2049p  356.0000m 
  357.00000m -443.2055p  357.0000m 
  358.00000m -443.2061p  358.0000m 
  359.00000m -443.2067p  359.0000m 
  360.00000m -443.2074p  360.0000m 
  361.00000m -443.2080p  361.0000m 
  362.00000m -443.2087p  362.0000m 
  363.00000m -443.2095p  363.0000m 
  364.00000m -443.2102p  364.0000m 
  365.00000m -443.2110p  365.0000m 
  366.00000m -443.2118p  366.0000m 
  367.00000m -443.2126p  367.0000m 
  368.00000m -443.2134p  368.0000m 
  369.00000m -443.2143p  369.0000m 
  370.00000m -443.2152p  370.0000m 
  371.00000m -443.2162p  371.0000m 
  372.00000m -443.2172p  372.0000m 
  373.00000m -443.2182p  373.0000m 
  374.00000m -443.2193p  374.0000m 
  375.00000m -443.2204p  375.0000m 
  376.00000m -443.2215p  376.0000m 
  377.00000m -443.2227p  377.0000m 
  378.00000m -443.2239p  378.0000m 
  379.00000m -443.2252p  379.0000m 
  380.00000m -443.2265p  380.0000m 
  381.00000m -443.2279p  381.0000m 
  382.00000m -443.2293p  382.0000m 
  383.00000m -443.2307p  383.0000m 
  384.00000m -443.2322p  384.0000m 
  385.00000m -443.2338p  385.0000m 
  386.00000m -443.2354p  386.0000m 
  387.00000m -443.2371p  387.0000m 
  388.00000m -443.2389p  388.0000m 
  389.00000m -443.2407p  389.0000m 
  390.00000m -443.2426p  390.0000m 
  391.00000m -443.2445p  391.0000m 
  392.00000m -443.2465p  392.0000m 
  393.00000m -443.2486p  393.0000m 
  394.00000m -443.2508p  394.0000m 
  395.00000m -443.2530p  395.0000m 
  396.00000m -443.2554p  396.0000m 
  397.00000m -443.2578p  397.0000m 
  398.00000m -443.2603p  398.0000m 
  399.00000m -443.2629p  399.0000m 
  400.00000m -443.2656p  400.0000m 
  401.00000m -443.2683p  401.0000m 
  402.00000m -443.2712p  402.0000m 
  403.00000m -443.2742p  403.0000m 
  404.00000m -443.2773p  404.0000m 
  405.00000m -443.2805p  405.0000m 
  406.00000m -443.2838p  406.0000m 
  407.00000m -443.2873p  407.0000m 
  408.00000m -443.2908p  408.0000m 
  409.00000m -443.2945p  409.0000m 
  410.00000m -443.2984p  410.0000m 
  411.00000m -443.3023p  411.0000m 
  412.00000m -443.3065p  412.0000m 
  413.00000m -443.3107p  413.0000m 
  414.00000m -443.3151p  414.0000m 
  415.00000m -443.3197p  415.0000m 
  416.00000m -443.3245p  416.0000m 
  417.00000m -443.3294p  417.0000m 
  418.00000m -443.3345p  418.0000m 
  419.00000m -443.3397p  419.0000m 
  420.00000m -443.3452p  420.0000m 
  421.00000m -443.3509p  421.0000m 
  422.00000m -443.3567p  422.0000m 
  423.00000m -443.3628p  423.0000m 
  424.00000m -443.3691p  424.0000m 
  425.00000m -443.3756p  425.0000m 
  426.00000m -443.3824p  426.0000m 
  427.00000m -443.3894p  427.0000m 
  428.00000m -443.3966p  428.0000m 
  429.00000m -443.4041p  429.0000m 
  430.00000m -443.4119p  430.0000m 
  431.00000m -443.4200p  431.0000m 
  432.00000m -443.4283p  432.0000m 
  433.00000m -443.4370p  433.0000m 
  434.00000m -443.4460p  434.0000m 
  435.00000m -443.4553p  435.0000m 
  436.00000m -443.4649p  436.0000m 
  437.00000m -443.4749p  437.0000m 
  438.00000m -443.4852p  438.0000m 
  439.00000m -443.4959p  439.0000m 
  440.00000m -443.5070p  440.0000m 
  441.00000m -443.5184p  441.0000m 
  442.00000m -443.5303p  442.0000m 
  443.00000m -443.5427p  443.0000m 
  444.00000m -443.5554p  444.0000m 
  445.00000m -443.5686p  445.0000m 
  446.00000m -443.5823p  446.0000m 
  447.00000m -443.5965p  447.0000m 
  448.00000m -443.6112p  448.0000m 
  449.00000m -443.6264p  449.0000m 
  450.00000m -443.6422p  450.0000m 
  451.00000m -443.6585p  451.0000m 
  452.00000m -443.6754p  452.0000m 
  453.00000m -443.6929p  453.0000m 
  454.00000m -443.7111p  454.0000m 
  455.00000m -443.7299p  455.0000m 
  456.00000m -443.7493p  456.0000m 
  457.00000m -443.7695p  457.0000m 
  458.00000m -443.7904p  458.0000m 
  459.00000m -443.8120p  459.0000m 
  460.00000m -443.8344p  460.0000m 
  461.00000m -443.8576p  461.0000m 
  462.00000m -443.8816p  462.0000m 
  463.00000m -443.9065p  463.0000m 
  464.00000m -443.9323p  464.0000m 
  465.00000m -443.9590p  465.0000m 
  466.00000m -443.9866p  466.0000m 
  467.00000m -444.0152p  467.0000m 
  468.00000m -444.0449p  468.0000m 
  469.00000m -444.0756p  469.0000m 
  470.00000m -444.1074p  470.0000m 
  471.00000m -444.1403p  471.0000m 
  472.00000m -444.1744p  472.0000m 
  473.00000m -444.2097p  473.0000m 
  474.00000m -444.2463p  474.0000m 
  475.00000m -444.2841p  475.0000m 
  476.00000m -444.3233p  476.0000m 
  477.00000m -444.3639p  477.0000m 
  478.00000m -444.4060p  478.0000m 
  479.00000m -444.4495p  479.0000m 
  480.00000m -444.4946p  480.0000m 
  481.00000m -444.5413p  481.0000m 
  482.00000m -444.5896p  482.0000m 
  483.00000m -444.6396p  483.0000m 
  484.00000m -444.6915p  484.0000m 
  485.00000m -444.7451p  485.0000m 
  486.00000m -444.8007p  486.0000m 
  487.00000m -444.8582p  487.0000m 
  488.00000m -444.9178p  488.0000m 
  489.00000m -444.9794p  489.0000m 
  490.00000m -445.0433p  490.0000m 
  491.00000m -445.1094p  491.0000m 
  492.00000m -445.1778p  492.0000m 
  493.00000m -445.2487p  493.0000m 
  494.00000m -445.3220p  494.0000m 
  495.00000m -445.3980p  495.0000m 
  496.00000m -445.4766p  496.0000m 
  497.00000m -445.5580p  497.0000m 
  498.00000m -445.6423p  498.0000m 
  499.00000m -445.7295p  499.0000m 
  500.00000m -445.8199p  500.0000m 
  501.00000m -445.9134p  501.0000m 
  502.00000m -446.0102p  502.0000m 
  503.00000m -446.1104p  503.0000m 
  504.00000m -446.2141p  504.0000m 
  505.00000m -446.3215p  505.0000m 
  506.00000m -446.4326p  506.0000m 
  507.00000m -446.5477p  507.0000m 
  508.00000m -446.6668p  508.0000m 
  509.00000m -446.7900p  509.0000m 
  510.00000m -446.9177p  510.0000m 
  511.00000m -447.0497p  511.0000m 
  512.00000m -447.1865p  512.0000m 
  513.00000m -447.3280p  513.0000m 
  514.00000m -447.4745p  514.0000m 
  515.00000m -447.6261p  515.0000m 
  516.00000m -447.7830p  516.0000m 
  517.00000m -447.9454p  517.0000m 
  518.00000m -448.1135p  518.0000m 
  519.00000m -448.2875p  519.0000m 
  520.00000m -448.4675p  520.0000m 
  521.00000m -448.6539p  521.0000m 
  522.00000m -448.8467p  522.0000m 
  523.00000m -449.0463p  523.0000m 
  524.00000m -449.2529p  524.0000m 
  525.00000m -449.4667p  525.0000m 
  526.00000m -449.6879p  526.0000m 
  527.00000m -449.9168p  527.0000m 
  528.00000m -450.1538p  528.0000m 
  529.00000m -450.3989p  529.0000m 
  530.00000m -450.6526p  530.0000m 
  531.00000m -450.9152p  531.0000m 
  532.00000m -451.1869p  532.0000m 
  533.00000m -451.4680p  533.0000m 
  534.00000m -451.7589p  534.0000m 
  535.00000m -452.0599p  535.0000m 
  536.00000m -452.3713p  536.0000m 
  537.00000m -452.6936p  537.0000m 
  538.00000m -453.0270p  538.0000m 
  539.00000m -453.3720p  539.0000m 
  540.00000m -453.7290p  540.0000m 
  541.00000m -454.0983p  541.0000m 
  542.00000m -454.4804p  542.0000m 
  543.00000m -454.8757p  543.0000m 
  544.00000m -455.2847p  544.0000m 
  545.00000m -455.7079p  545.0000m 
  546.00000m -456.1457p  546.0000m 
  547.00000m -456.5986p  547.0000m 
  548.00000m -457.0671p  548.0000m 
  549.00000m -457.5518p  549.0000m 
  550.00000m -458.0533p  550.0000m 
  551.00000m -458.5720p  551.0000m 
  552.00000m -459.1086p  552.0000m 
  553.00000m -459.6637p  553.0000m 
  554.00000m -460.2378p  554.0000m 
  555.00000m -460.8318p  555.0000m 
  556.00000m -461.4461p  556.0000m 
  557.00000m -462.0816p  557.0000m 
  558.00000m -462.7389p  558.0000m 
  559.00000m -463.4188p  559.0000m 
  560.00000m -464.1220p  560.0000m 
  561.00000m -464.8493p  561.0000m 
  562.00000m -465.6016p  562.0000m 
  563.00000m -466.3796p  563.0000m 
  564.00000m -467.1842p  564.0000m 
  565.00000m -468.0164p  565.0000m 
  566.00000m -468.8771p  566.0000m 
  567.00000m -469.7672p  567.0000m 
  568.00000m -470.6877p  568.0000m 
  569.00000m -471.6396p  569.0000m 
  570.00000m -472.6240p  570.0000m 
  571.00000m -473.6420p  571.0000m 
  572.00000m -474.6946p  572.0000m 
  573.00000m -475.7832p  573.0000m 
  574.00000m -476.9088p  574.0000m 
  575.00000m -478.0727p  575.0000m 
  576.00000m -479.2761p  576.0000m 
  577.00000m -480.5205p  577.0000m 
  578.00000m -481.8071p  578.0000m 
  579.00000m -483.1374p  579.0000m 
  580.00000m -484.5128p  580.0000m 
  581.00000m -485.9349p  581.0000m 
  582.00000m -487.4051p  582.0000m 
  583.00000m -488.9251p  583.0000m 
  584.00000m -490.4965p  584.0000m 
  585.00000m -492.1211p  585.0000m 
  586.00000m -493.8005p  586.0000m 
  587.00000m -495.5367p  587.0000m 
  588.00000m -497.3315p  588.0000m 
  589.00000m -499.1868p  589.0000m 
  590.00000m -501.1046p  590.0000m 
  591.00000m -503.0870p  591.0000m 
  592.00000m -505.1362p  592.0000m 
  593.00000m -507.2543p  593.0000m 
  594.00000m -509.4435p  594.0000m 
  595.00000m -511.7063p  595.0000m 
  596.00000m -514.0450p  596.0000m 
  597.00000m -516.4622p  597.0000m 
  598.00000m -518.9604p  598.0000m 
  599.00000m -521.5423p  599.0000m 
  600.00000m -524.2106p  600.0000m 
  601.00000m -526.9681p  601.0000m 
  602.00000m -529.8178p  602.0000m 
  603.00000m -532.7626p  603.0000m 
  604.00000m -535.8057p  604.0000m 
  605.00000m -538.9503p  605.0000m 
  606.00000m -542.1997p  606.0000m 
  607.00000m -545.5573p  607.0000m 
  608.00000m -549.0265p  608.0000m 
  609.00000m -552.6111p  609.0000m 
  610.00000m -556.3147p  610.0000m 
  611.00000m -560.1413p  611.0000m 
  612.00000m -564.0948p  612.0000m 
  613.00000m -568.1793p  613.0000m 
  614.00000m -572.3990p  614.0000m 
  615.00000m -576.7584p  615.0000m 
  616.00000m -581.2618p  616.0000m 
  617.00000m -585.9140p  617.0000m 
  618.00000m -590.7198p  618.0000m 
  619.00000m -595.6840p  619.0000m 
  620.00000m -600.8117p  620.0000m 
  621.00000m -606.1082p  621.0000m 
  622.00000m -611.5790p  622.0000m 
  623.00000m -617.2295p  623.0000m 
  624.00000m -623.0655p  624.0000m 
  625.00000m -629.0930p  625.0000m 
  626.00000m -635.3180p  626.0000m 
  627.00000m -641.7468p  627.0000m 
  628.00000m -648.3859p  628.0000m 
  629.00000m -655.2420p  629.0000m 
  630.00000m -662.3220p  630.0000m 
  631.00000m -669.6330p  631.0000m 
  632.00000m -677.1823p  632.0000m 
  633.00000m -684.9773p  633.0000m 
  634.00000m -693.0260p  634.0000m 
  635.00000m -701.3362p  635.0000m 
  636.00000m -709.9162p  636.0000m 
  637.00000m -718.7745p  637.0000m 
  638.00000m -727.9199p  638.0000m 
  639.00000m -737.3612p  639.0000m 
  640.00000m -747.1079p  640.0000m 
  641.00000m -757.1694p  641.0000m 
  642.00000m -767.5557p  642.0000m 
  643.00000m -778.2768p  643.0000m 
  644.00000m -789.3431p  644.0000m 
  645.00000m -800.7654p  645.0000m 
  646.00000m -812.5548p  646.0000m 
  647.00000m -824.7226p  647.0000m 
  648.00000m -837.2806p  648.0000m 
  649.00000m -850.2408p  649.0000m 
  650.00000m -863.6157p  650.0000m 
  651.00000m -877.4181p  651.0000m 
  652.00000m -891.6610p  652.0000m 
  653.00000m -906.3582p  653.0000m 
  654.00000m -921.5234p  654.0000m 
  655.00000m -937.1711p  655.0000m 
  656.00000m -953.3160p  656.0000m 
  657.00000m -969.9734p  657.0000m 
  658.00000m -987.1587p  658.0000m 
  659.00000m   -1.0049n  659.0000m 
  660.00000m   -1.0232n  660.0000m 
  661.00000m   -1.0420n  661.0000m 
  662.00000m   -1.0615n  662.0000m 
  663.00000m   -1.0816n  663.0000m 
  664.00000m   -1.1023n  664.0000m 
  665.00000m   -1.1237n  665.0000m 
  666.00000m   -1.1457n  666.0000m 
  667.00000m   -1.1684n  667.0000m 
  668.00000m   -1.1918n  668.0000m 
  669.00000m   -1.2160n  669.0000m 
  670.00000m   -1.2409n  670.0000m 
  671.00000m   -1.2666n  671.0000m 
  672.00000m   -1.2931n  672.0000m 
  673.00000m   -1.3204n  673.0000m 
  674.00000m   -1.3486n  674.0000m 
  675.00000m   -1.3776n  675.0000m 
  676.00000m   -1.4076n  676.0000m 
  677.00000m   -1.4384n  677.0000m 
  678.00000m   -1.4703n  678.0000m 
  679.00000m   -1.5030n  679.0000m 
  680.00000m   -1.5369n  680.0000m 
  681.00000m   -1.5717n  681.0000m 
  682.00000m   -1.6076n  682.0000m 
  683.00000m   -1.6446n  683.0000m 
  684.00000m   -1.6828n  684.0000m 
  685.00000m   -1.7221n  685.0000m 
  686.00000m   -1.7626n  686.0000m 
  687.00000m   -1.8044n  687.0000m 
  688.00000m   -1.8474n  688.0000m 
  689.00000m   -1.8917n  689.0000m 
  690.00000m   -1.9374n  690.0000m 
  691.00000m   -1.9844n  691.0000m 
  692.00000m   -2.0329n  692.0000m 
  693.00000m   -2.0828n  693.0000m 
  694.00000m   -2.1343n  694.0000m 
  695.00000m   -2.1872n  695.0000m 
  696.00000m   -2.2418n  696.0000m 
  697.00000m   -2.2980n  697.0000m 
  698.00000m   -2.3559n  698.0000m 
  699.00000m   -2.4155n  699.0000m 
  700.00000m   -2.4769n  700.0000m 
  701.00000m   -2.5401n  701.0000m 
  702.00000m   -2.6052n  702.0000m 
  703.00000m   -2.6722n  703.0000m 
  704.00000m   -2.7412n  704.0000m 
  705.00000m   -2.8122n  705.0000m 
  706.00000m   -2.8853n  706.0000m 
  707.00000m   -2.9606n  707.0000m 
  708.00000m   -3.0380n  708.0000m 
  709.00000m   -3.1178n  709.0000m 
  710.00000m   -3.1999n  710.0000m 
  711.00000m   -3.2843n  711.0000m 
  712.00000m   -3.3712n  712.0000m 
  713.00000m   -3.4607n  713.0000m 
  714.00000m   -3.5527n  714.0000m 
  715.00000m   -3.6474n  715.0000m 
  716.00000m   -3.7448n  716.0000m 
  717.00000m   -3.8450n  717.0000m 
  718.00000m   -3.9481n  718.0000m 
  719.00000m   -4.0542n  719.0000m 
  720.00000m   -4.1633n  720.0000m 
  721.00000m   -4.2754n  721.0000m 
  722.00000m   -4.3908n  722.0000m 
  723.00000m   -4.5095n  723.0000m 
  724.00000m   -4.6315n  724.0000m 
  725.00000m   -4.7569n  725.0000m 
  726.00000m   -4.8859n  726.0000m 
  727.00000m   -5.0185n  727.0000m 
  728.00000m   -5.1549n  728.0000m 
  729.00000m   -5.2950n  729.0000m 
  730.00000m   -5.4390n  730.0000m 
  731.00000m   -5.5871n  731.0000m 
  732.00000m   -5.7392n  732.0000m 
  733.00000m   -5.8956n  733.0000m 
  734.00000m   -6.0562n  734.0000m 
  735.00000m   -6.2213n  735.0000m 
  736.00000m   -6.3909n  736.0000m 
  737.00000m   -6.5652n  737.0000m 
  738.00000m   -6.7442n  738.0000m 
  739.00000m   -6.9280n  739.0000m 
  740.00000m   -7.1168n  740.0000m 
  741.00000m   -7.3108n  741.0000m 
  742.00000m   -7.5099n  742.0000m 
  743.00000m   -7.7144n  743.0000m 
  744.00000m   -7.9244n  744.0000m 
  745.00000m   -8.1400n  745.0000m 
  746.00000m   -8.3613n  746.0000m 
  747.00000m   -8.5884n  747.0000m 
  748.00000m   -8.8216n  748.0000m 
  749.00000m   -9.0609n  749.0000m 
  750.00000m   -9.3064n  750.0000m 
  751.00000m   -9.5584n  751.0000m 
  752.00000m   -9.8169n  752.0000m 
  753.00000m  -10.0822n  753.0000m 
  754.00000m  -10.3543n  754.0000m 
  755.00000m  -10.6334n  755.0000m 
  756.00000m  -10.9196n  756.0000m 
  757.00000m  -11.2132n  757.0000m 
  758.00000m  -11.5142n  758.0000m 
  759.00000m  -11.8228n  759.0000m 
  760.00000m  -12.1393n  760.0000m 
  761.00000m  -12.4636n  761.0000m 
  762.00000m  -12.7961n  762.0000m 
  763.00000m  -13.1369n  763.0000m 
  764.00000m  -13.4861n  764.0000m 
  765.00000m  -13.8440n  765.0000m 
  766.00000m  -14.2106n  766.0000m 
  767.00000m  -14.5862n  767.0000m 
  768.00000m  -14.9710n  768.0000m 
  769.00000m  -15.3650n  769.0000m 
  770.00000m  -15.7686n  770.0000m 
  771.00000m  -16.1818n  771.0000m 
  772.00000m  -16.6050n  772.0000m 
  773.00000m  -17.0381n  773.0000m 
  774.00000m  -17.4815n  774.0000m 
  775.00000m  -17.9353n  775.0000m 
  776.00000m  -18.3997n  776.0000m 
  777.00000m  -18.8749n  777.0000m 
  778.00000m  -19.3610n  778.0000m 
  779.00000m  -19.8583n  779.0000m 
  780.00000m  -20.3670n  780.0000m 
  781.00000m  -20.8872n  781.0000m 
  782.00000m  -21.4192n  782.0000m 
  783.00000m  -21.9630n  783.0000m 
  784.00000m  -22.5190n  784.0000m 
  785.00000m  -23.0873n  785.0000m 
  786.00000m  -23.6680n  786.0000m 
  787.00000m  -24.2615n  787.0000m 
  788.00000m  -24.8678n  788.0000m 
  789.00000m  -25.4871n  789.0000m 
  790.00000m  -26.1197n  790.0000m 
  791.00000m  -26.7658n  791.0000m 
  792.00000m  -27.4254n  792.0000m 
  793.00000m  -28.0988n  793.0000m 
  794.00000m  -28.7862n  794.0000m 
  795.00000m  -29.4877n  795.0000m 
  796.00000m  -30.2035n  796.0000m 
  797.00000m  -30.9339n  797.0000m 
  798.00000m  -31.6789n  798.0000m 
  799.00000m  -32.4387n  799.0000m 
  800.00000m  -33.2135n  800.0000m 
  801.00000m  -34.0035n  801.0000m 
  802.00000m  -34.8088n  802.0000m 
  803.00000m  -35.6296n  803.0000m 
  804.00000m  -36.4660n  804.0000m 
  805.00000m  -37.3182n  805.0000m 
  806.00000m  -38.1863n  806.0000m 
  807.00000m  -39.0705n  807.0000m 
  808.00000m  -39.9709n  808.0000m 
  809.00000m  -40.8876n  809.0000m 
  810.00000m  -41.8207n  810.0000m 
  811.00000m  -42.7705n  811.0000m 
  812.00000m  -43.7369n  812.0000m 
  813.00000m  -44.7201n  813.0000m 
  814.00000m  -45.7203n  814.0000m 
  815.00000m  -46.7375n  815.0000m 
  816.00000m  -47.7718n  816.0000m 
  817.00000m  -48.8234n  817.0000m 
  818.00000m  -49.8922n  818.0000m 
  819.00000m  -50.9785n  819.0000m 
  820.00000m  -52.0823n  820.0000m 
  821.00000m  -53.2036n  821.0000m 
  822.00000m  -54.3426n  822.0000m 
  823.00000m  -55.4993n  823.0000m 
  824.00000m  -56.6738n  824.0000m 
  825.00000m  -57.8661n  825.0000m 
  826.00000m  -59.0764n  826.0000m 
  827.00000m  -60.3046n  827.0000m 
  828.00000m  -61.5509n  828.0000m 
  829.00000m  -62.8153n  829.0000m 
  830.00000m  -64.0978n  830.0000m 
  831.00000m  -65.3986n  831.0000m 
  832.00000m  -66.7176n  832.0000m 
  833.00000m  -68.0549n  833.0000m 
  834.00000m  -69.4105n  834.0000m 
  835.00000m  -70.7846n  835.0000m 
  836.00000m  -72.1772n  836.0000m 
  837.00000m  -73.5883n  837.0000m 
  838.00000m  -75.0180n  838.0000m 
  839.00000m  -76.4664n  839.0000m 
  840.00000m  -77.9335n  840.0000m 
  841.00000m  -79.4194n  841.0000m 
  842.00000m  -80.9241n  842.0000m 
  843.00000m  -82.4479n  843.0000m 
  844.00000m  -83.9906n  844.0000m 
  845.00000m  -85.5525n  845.0000m 
  846.00000m  -87.1336n  846.0000m 
  847.00000m  -88.7341n  847.0000m 
  848.00000m  -90.3540n  848.0000m 
  849.00000m  -91.9935n  849.0000m 
  850.00000m  -93.6526n  850.0000m 
  851.00000m  -95.3316n  851.0000m 
  852.00000m  -97.0306n  852.0000m 
  853.00000m  -98.7497n  853.0000m 
  854.00000m -100.4890n  854.0000m 
  855.00000m -102.2489n  855.0000m 
  856.00000m -104.0293n  856.0000m 
  857.00000m -105.8306n  857.0000m 
  858.00000m -107.6529n  858.0000m 
  859.00000m -109.4964n  859.0000m 
  860.00000m -111.3614n  860.0000m 
  861.00000m -113.2480n  861.0000m 
  862.00000m -115.1566n  862.0000m 
  863.00000m -117.0873n  863.0000m 
  864.00000m -119.0404n  864.0000m 
  865.00000m -121.0162n  865.0000m 
  866.00000m -123.0150n  866.0000m 
  867.00000m -125.0370n  867.0000m 
  868.00000m -127.0825n  868.0000m 
  869.00000m -129.1519n  869.0000m 
  870.00000m -131.2454n  870.0000m 
  871.00000m -133.3633n  871.0000m 
  872.00000m -135.5061n  872.0000m 
  873.00000m -137.6740n  873.0000m 
  874.00000m -139.8674n  874.0000m 
  875.00000m -142.0865n  875.0000m 
  876.00000m -144.3319n  876.0000m 
  877.00000m -146.6039n  877.0000m 
  878.00000m -148.9028n  878.0000m 
  879.00000m -151.2290n  879.0000m 
  880.00000m -153.5829n  880.0000m 
  881.00000m -155.9649n  881.0000m 
  882.00000m -158.3755n  882.0000m 
  883.00000m -160.8149n  883.0000m 
  884.00000m -163.2838n  884.0000m 
  885.00000m -165.7823n  885.0000m 
  886.00000m -168.3111n  886.0000m 
  887.00000m -170.8706n  887.0000m 
  888.00000m -173.4611n  888.0000m 
  889.00000m -176.0832n  889.0000m 
  890.00000m -178.7373n  890.0000m 
  891.00000m -181.4238n  891.0000m 
  892.00000m -184.1433n  892.0000m 
  893.00000m -186.8961n  893.0000m 
  894.00000m -189.6829n  894.0000m 
  895.00000m -192.5040n  895.0000m 
  896.00000m -195.3600n  896.0000m 
  897.00000m -198.2514n  897.0000m 
  898.00000m -201.1786n  898.0000m 
  899.00000m -204.1422n  899.0000m 
  900.00000m -207.1426n  900.0000m 
  901.00000m -210.1805n  901.0000m 
  902.00000m -213.2563n  902.0000m 
  903.00000m -216.3706n  903.0000m 
  904.00000m -219.5239n  904.0000m 
  905.00000m -222.7167n  905.0000m 
  906.00000m -225.9497n  906.0000m 
  907.00000m -229.2232n  907.0000m 
  908.00000m -232.5380n  908.0000m 
  909.00000m -235.8946n  909.0000m 
  910.00000m -239.2935n  910.0000m 
  911.00000m -242.7353n  911.0000m 
  912.00000m -246.2206n  912.0000m 
  913.00000m -249.7500n  913.0000m 
  914.00000m -253.3240n  914.0000m 
  915.00000m -256.9434n  915.0000m 
  916.00000m -260.6086n  916.0000m 
  917.00000m -264.3204n  917.0000m 
  918.00000m -268.0792n  918.0000m 
  919.00000m -271.8858n  919.0000m 
  920.00000m -275.7408n  920.0000m 
  921.00000m -279.6447n  921.0000m 
  922.00000m -283.5983n  922.0000m 
  923.00000m -287.6022n  923.0000m 
  924.00000m -291.6571n  924.0000m 
  925.00000m -295.7635n  925.0000m 
  926.00000m -299.9222n  926.0000m 
  927.00000m -304.1338n  927.0000m 
  928.00000m -308.3991n  928.0000m 
  929.00000m -312.7187n  929.0000m 
  930.00000m -317.0932n  930.0000m 
  931.00000m -321.5235n  931.0000m 
  932.00000m -326.0101n  932.0000m 
  933.00000m -330.5539n  933.0000m 
  934.00000m -335.1555n  934.0000m 
  935.00000m -339.8156n  935.0000m 
  936.00000m -344.5351n  936.0000m 
  937.00000m -349.3145n  937.0000m 
  938.00000m -354.1547n  938.0000m 
  939.00000m -359.0565n  939.0000m 
  940.00000m -364.0205n  940.0000m 
  941.00000m -369.0475n  941.0000m 
  942.00000m -374.1384n  942.0000m 
  943.00000m -379.2938n  943.0000m 
  944.00000m -384.5146n  944.0000m 
  945.00000m -389.8016n  945.0000m 
  946.00000m -395.1556n  946.0000m 
  947.00000m -400.5773n  947.0000m 
  948.00000m -406.0677n  948.0000m 
  949.00000m -411.6274n  949.0000m 
  950.00000m -417.2574n  950.0000m 
  951.00000m -422.9585n  951.0000m 
  952.00000m -428.7315n  952.0000m 
  953.00000m -434.5772n  953.0000m 
  954.00000m -440.4966n  954.0000m 
  955.00000m -446.4905n  955.0000m 
  956.00000m -452.5598n  956.0000m 
  957.00000m -458.7053n  957.0000m 
  958.00000m -464.9279n  958.0000m 
  959.00000m -471.2286n  959.0000m 
  960.00000m -477.6082n  960.0000m 
  961.00000m -484.0677n  961.0000m 
  962.00000m -490.6078n  962.0000m 
  963.00000m -497.2297n  963.0000m 
  964.00000m -503.9342n  964.0000m 
  965.00000m -510.7222n  965.0000m 
  966.00000m -517.5948n  966.0000m 
  967.00000m -524.5528n  967.0000m 
  968.00000m -531.5972n  968.0000m 
  969.00000m -538.7289n  969.0000m 
  970.00000m -545.9490n  970.0000m 
  971.00000m -553.2585n  971.0000m 
  972.00000m -560.6583n  972.0000m 
  973.00000m -568.1494n  973.0000m 
  974.00000m -575.7328n  974.0000m 
  975.00000m -583.4096n  975.0000m 
  976.00000m -591.1807n  976.0000m 
  977.00000m -599.0473n  977.0000m 
  978.00000m -607.0102n  978.0000m 
  979.00000m -615.0706n  979.0000m 
  980.00000m -623.2293n  980.0000m 
  981.00000m -631.4876n  981.0000m 
  982.00000m -639.8463n  982.0000m 
  983.00000m -648.3067n  983.0000m 
  984.00000m -656.8698n  984.0000m 
  985.00000m -665.5366n  985.0000m 
  986.00000m -674.3082n  986.0000m 
  987.00000m -683.1858n  987.0000m 
  988.00000m -692.1704n  988.0000m 
  989.00000m -701.2632n  989.0000m 
  990.00000m -710.4653n  990.0000m 
  991.00000m -719.7777n  991.0000m 
  992.00000m -729.2016n  992.0000m 
  993.00000m -738.7383n  993.0000m 
  994.00000m -748.3887n  994.0000m 
  995.00000m -758.1540n  995.0000m 
  996.00000m -768.0355n  996.0000m 
  997.00000m -778.0342n  997.0000m 
  998.00000m -788.1513n  998.0000m 
  999.00000m -798.3880n  999.0000m 
    1.00000  -808.7455n    1.0000  
y

          ***** job concluded
 ******  
 

 ****** job statistics summary tnom=  25.000 temp=  25.000 ******

  ******  Circuit Statistics  ******
  # nodes       =       7 # elements   =       3
  # resistors   =       0 # capacitors =       0 # inductors   =       0
  # mutual_inds =       0 # vccs       =       0 # vcvs        =       0
  # cccs        =       0 # ccvs       =       0 # volt_srcs   =       2
  # curr_srcs   =       0 # diodes     =       0 # bjts        =       0
  # jfets       =       0 # mosfets    =       1 # U elements  =       0
  # T elements  =       0 # W elements =       0 # B elements  =       0
  # S elements  =       0 # P elements =       0 # va device   =       0
  # vector_srcs =       0 # N elements =       0


  ******  Runtime Statistics (seconds)  ******

  analysis           time    # points   tot. iter  conv.iter
  op point           0.00           1           0
  dc sweep           0.03        1001        2004
  readin             0.01
  errchk             0.00
  setup              0.00
  output             0.00


           peak memory used         62.70 megabytes
           total cpu time            0.05 seconds
           total elapsed time        0.06 seconds
           job started at     23:56:51 11/02/2021
           job ended   at     23:56:51 11/02/2021


  
      

Element variations(Local):   element              parameter
 *****************************************************************
 ******  option summary
 ******
 runlvl  = 3         bypass  = 2.0000    
  **warning** negative-mos conductance =      0:m1               iter=    2
 vds,vgs,vbs =          0.975         0.075        0.9567
  gm,gds,gmbs,ids=     2.114E-06     1.867E-07    -9.088E-11     1.612E-07
 ******
 

 ****** dc transfer curves tnom=  25.000 temp=  25.000 ******
x

 volt         current    voltage   
             m1         vin        
    0.       -677.9899p    0.      
    1.00000m -677.9899p    1.0000m 
    2.00000m -677.9899p    2.0000m 
    3.00000m -677.9899p    3.0000m 
    4.00000m -677.9899p    4.0000m 
    5.00000m -677.9899p    5.0000m 
    6.00000m -677.9899p    6.0000m 
    7.00000m -677.9899p    7.0000m 
    8.00000m -677.9899p    8.0000m 
    9.00000m -677.9899p    9.0000m 
   10.00000m -677.9899p   10.0000m 
   11.00000m -677.9899p   11.0000m 
   12.00000m -677.9899p   12.0000m 
   13.00000m -677.9899p   13.0000m 
   14.00000m -677.9899p   14.0000m 
   15.00000m -677.9899p   15.0000m 
   16.00000m -677.9899p   16.0000m 
   17.00000m -677.9899p   17.0000m 
   18.00000m -677.9899p   18.0000m 
   19.00000m -677.9899p   19.0000m 
   20.00000m -677.9899p   20.0000m 
   21.00000m -677.9899p   21.0000m 
   22.00000m -677.9899p   22.0000m 
   23.00000m -677.9899p   23.0000m 
   24.00000m -677.9899p   24.0000m 
   25.00000m -677.9899p   25.0000m 
   26.00000m -677.9899p   26.0000m 
   27.00000m -677.9899p   27.0000m 
   28.00000m -677.9899p   28.0000m 
   29.00000m -677.9899p   29.0000m 
   30.00000m -677.9899p   30.0000m 
   31.00000m -677.9899p   31.0000m 
   32.00000m -677.9899p   32.0000m 
   33.00000m -677.9899p   33.0000m 
   34.00000m -677.9899p   34.0000m 
   35.00000m -677.9899p   35.0000m 
   36.00000m -677.9899p   36.0000m 
   37.00000m -677.9899p   37.0000m 
   38.00000m -677.9899p   38.0000m 
   39.00000m -677.9899p   39.0000m 
   40.00000m -677.9899p   40.0000m 
   41.00000m -677.9899p   41.0000m 
   42.00000m -677.9899p   42.0000m 
   43.00000m -677.9899p   43.0000m 
   44.00000m -677.9899p   44.0000m 
   45.00000m -677.9899p   45.0000m 
   46.00000m -677.9899p   46.0000m 
   47.00000m -677.9899p   47.0000m 
   48.00000m -677.9899p   48.0000m 
   49.00000m -677.9899p   49.0000m 
   50.00000m -677.9899p   50.0000m 
   51.00000m -677.9899p   51.0000m 
   52.00000m -677.9899p   52.0000m 
   53.00000m -677.9899p   53.0000m 
   54.00000m -677.9899p   54.0000m 
   55.00000m -677.9899p   55.0000m 
   56.00000m -677.9899p   56.0000m 
   57.00000m -677.9899p   57.0000m 
   58.00000m -677.9899p   58.0000m 
   59.00000m -677.9899p   59.0000m 
   60.00000m -677.9899p   60.0000m 
[...]
  485.00000m   -1.0129n  485.0000m 
  486.00000m   -1.0129n  486.0000m 
  487.00000m   -1.0129n  487.0000m 
  488.00000m   -1.0129n  488.0000m 
  489.00000m   -1.0129n  489.0000m 
  490.00000m   -1.0129n  490.0000m 
  491.00000m   -1.0129n  491.0000m 
  492.00000m   -1.0129n  492.0000m 
  493.00000m   -1.0129n  493.0000m 
  494.00000m   -1.0129n  494.0000m 
  495.00000m   -1.0129n  495.0000m 
  496.00000m   -1.0129n  496.0000m 
  497.00000m   -1.0129n  497.0000m 
  498.00000m   -1.0129n  498.0000m 
  499.00000m   -1.0129n  499.0000m 
  500.00000m   -1.0129n  500.0000m 
  501.00000m   -1.0129n  501.0000m 
  502.00000m   -1.0129n  502.0000m 
  503.00000m   -1.0129n  503.0000m 
  504.00000m   -1.0129n  504.0000m 
  505.00000m   -1.0129n  505.0000m 
  506.00000m   -1.0129n  506.0000m 
  507.00000m   -1.0129n  507.0000m 
  508.00000m   -1.0129n  508.0000m 
  509.00000m   -1.0129n  509.0000m 
  510.00000m   -1.0129n  510.0000m 
  511.00000m   -1.0129n  511.0000m 
  512.00000m   -1.0129n  512.0000m 
  513.00000m   -1.0129n  513.0000m 
  514.00000m   -1.0129n  514.0000m 
  515.00000m   -1.0129n  515.0000m 
  516.00000m   -1.0129n  516.0000m 
  517.00000m   -1.0129n  517.0000m 
  518.00000m   -1.0129n  518.0000m 
  519.00000m   -1.0129n  519.0000m 
  520.00000m   -1.0129n  520.0000m 
  521.00000m   -1.0129n  521.0000m 
  522.00000m   -1.0129n  522.0000m 
  523.00000m   -1.0129n  523.0000m 
  524.00000m   -1.0129n  524.0000m 
  525.00000m   -1.0129n  525.0000m 
  526.00000m   -1.0129n  526.0000m 
  527.00000m   -1.0129n  527.0000m 
  528.00000m   -1.0129n  528.0000m 
  529.00000m   -1.0129n  529.0000m 
  530.00000m   -1.0129n  530.0000m 
  531.00000m   -1.0129n  531.0000m 
  532.00000m   -1.0129n  532.0000m 
  533.00000m   -1.0129n  533.0000m 
  534.00000m   -1.0129n  534.0000m 
  535.00000m   -1.0129n  535.0000m 
  536.00000m   -1.0130n  536.0000m 
  537.00000m   -1.0130n  537.0000m 
  538.00000m   -1.0130n  538.0000m 
  539.00000m   -1.0130n  539.0000m 
  540.00000m   -1.0130n  540.0000m 
  541.00000m   -1.0130n  541.0000m 
  542.00000m   -1.0130n  542.0000m 
  543.00000m   -1.0130n  543.0000m 
  544.00000m   -1.0130n  544.0000m 
  545.00000m   -1.0130n  545.0000m 
  546.00000m   -1.0130n  546.0000m 
  547.00000m   -1.0130n  547.0000m 
  548.00000m   -1.0130n  548.0000m 
  549.00000m   -1.0130n  549.0000m 
  550.00000m   -1.0130n  550.0000m 
  551.00000m   -1.0130n  551.0000m 
  552.00000m   -1.0130n  552.0000m 
  553.00000m   -1.0130n  553.0000m 
  554.00000m   -1.0130n  554.0000m 
  555.00000m   -1.0130n  555.0000m 
  556.00000m   -1.0130n  556.0000m 
  557.00000m   -1.0130n  557.0000m 
  558.00000m   -1.0131n  558.0000m 
  559.00000m   -1.0131n  559.0000m 
  560.00000m   -1.0131n  560.0000m 
  561.00000m   -1.0131n  561.0000m 
  562.00000m   -1.0131n  562.0000m 
  563.00000m   -1.0131n  563.0000m 
  564.00000m   -1.0131n  564.0000m 
  565.00000m   -1.0131n  565.0000m 
  566.00000m   -1.0131n  566.0000m 
  567.00000m   -1.0131n  567.0000m 
  568.00000m   -1.0131n  568.0000m 
  569.00000m   -1.0132n  569.0000m 
  570.00000m   -1.0132n  570.0000m 
  571.00000m   -1.0132n  571.0000m 
  572.00000m   -1.0132n  572.0000m 
  573.00000m   -1.0132n  573.0000m 
  574.00000m   -1.0132n  574.0000m 
  575.00000m   -1.0132n  575.0000m 
  576.00000m   -1.0132n  576.0000m 
  577.00000m   -1.0132n  577.0000m 
  578.00000m   -1.0133n  578.0000m 
  579.00000m   -1.0133n  579.0000m 
  580.00000m   -1.0133n  580.0000m 
  581.00000m   -1.0133n  581.0000m 
  582.00000m   -1.0133n  582.0000m 
  583.00000m   -1.0133n  583.0000m 
  584.00000m   -1.0134n  584.0000m 
  585.00000m   -1.0134n  585.0000m 
  586.00000m   -1.0134n  586.0000m 
  587.00000m   -1.0134n  587.0000m 
  588.00000m   -1.0134n  588.0000m 
  589.00000m   -1.0135n  589.0000m 
  590.00000m   -1.0135n  590.0000m 
  591.00000m   -1.0135n  591.0000m 
  592.00000m   -1.0135n  592.0000m 
  593.00000m   -1.0136n  593.0000m 
  594.00000m   -1.0136n  594.0000m 
  595.00000m   -1.0136n  595.0000m 
  596.00000m   -1.0136n  596.0000m 
  597.00000m   -1.0137n  597.0000m 
  598.00000m   -1.0137n  598.0000m 
  599.00000m   -1.0137n  599.0000m 
  600.00000m   -1.0138n  600.0000m 
  601.00000m   -1.0138n  601.0000m 
  602.00000m   -1.0138n  602.0000m 
  603.00000m   -1.0139n  603.0000m 
  604.00000m   -1.0139n  604.0000m 
  605.00000m   -1.0139n  605.0000m 
  606.00000m   -1.0140n  606.0000m 
  607.00000m   -1.0140n  607.0000m 
  608.00000m   -1.0141n  608.0000m 
  609.00000m   -1.0141n  609.0000m 
  610.00000m   -1.0142n  610.0000m 
  611.00000m   -1.0142n  611.0000m 
  612.00000m   -1.0143n  612.0000m 
  613.00000m   -1.0143n  613.0000m 
  614.00000m   -1.0144n  614.0000m 
  615.00000m   -1.0144n  615.0000m 
  616.00000m   -1.0145n  616.0000m 
  617.00000m   -1.0145n  617.0000m 
  618.00000m   -1.0146n  618.0000m 
  619.00000m   -1.0147n  619.0000m 
  620.00000m   -1.0147n  620.0000m 
  621.00000m   -1.0148n  621.0000m 
  622.00000m   -1.0149n  622.0000m 
  623.00000m   -1.0149n  623.0000m 
  624.00000m   -1.0150n  624.0000m 
  625.00000m   -1.0151n  625.0000m 
  626.00000m   -1.0152n  626.0000m 
  627.00000m   -1.0153n  627.0000m 
  628.00000m   -1.0154n  628.0000m 
  629.00000m   -1.0154n  629.0000m 
  630.00000m   -1.0155n  630.0000m 
  631.00000m   -1.0156n  631.0000m 
  632.00000m   -1.0157n  632.0000m 
  633.00000m   -1.0159n  633.0000m 
  634.00000m   -1.0160n  634.0000m 
  635.00000m   -1.0161n  635.0000m 
  636.00000m   -1.0162n  636.0000m 
  637.00000m   -1.0163n  637.0000m 
  638.00000m   -1.0165n  638.0000m 
  639.00000m   -1.0166n  639.0000m 
  640.00000m   -1.0167n  640.0000m 
  641.00000m   -1.0169n  641.0000m 
  642.00000m   -1.0170n  642.0000m 
  643.00000m   -1.0172n  643.0000m 
  644.00000m   -1.0173n  644.0000m 
  645.00000m   -1.0175n  645.0000m 
  646.00000m   -1.0177n  646.0000m 
  647.00000m   -1.0179n  647.0000m 
  648.00000m   -1.0180n  648.0000m 
  649.00000m   -1.0182n  649.0000m 
  650.00000m   -1.0184n  650.0000m 
  651.00000m   -1.0186n  651.0000m 
  652.00000m   -1.0188n  652.0000m 
  653.00000m   -1.0191n  653.0000m 
  654.00000m   -1.0193n  654.0000m 
  655.00000m   -1.0195n  655.0000m 
  656.00000m   -1.0198n  656.0000m 
  657.00000m   -1.0200n  657.0000m 
  658.00000m   -1.0203n  658.0000m 
  659.00000m   -1.0206n  659.0000m 
  660.00000m   -1.0209n  660.0000m 
  661.00000m   -1.0212n  661.0000m 
  662.00000m   -1.0215n  662.0000m 
  663.00000m   -1.0218n  663.0000m 
  664.00000m   -1.0221n  664.0000m 
  665.00000m   -1.0225n  665.0000m 
  666.00000m   -1.0228n  666.0000m 
  667.00000m   -1.0232n  667.0000m 
  668.00000m   -1.0236n  668.0000m 
  669.00000m   -1.0240n  669.0000m 
  670.00000m   -1.0244n  670.0000m 
  671.00000m   -1.0248n  671.0000m 
  672.00000m   -1.0252n  672.0000m 
  673.00000m   -1.0257n  673.0000m 
  674.00000m   -1.0262n  674.0000m 
  675.00000m   -1.0267n  675.0000m 
  676.00000m   -1.0272n  676.0000m 
  677.00000m   -1.0277n  677.0000m 
  678.00000m   -1.0283n  678.0000m 
  679.00000m   -1.0288n  679.0000m 
  680.00000m   -1.0294n  680.0000m 
  681.00000m   -1.0300n  681.0000m 
  682.00000m   -1.0307n  682.0000m 
  683.00000m   -1.0313n  683.0000m 
  684.00000m   -1.0320n  684.0000m 
  685.00000m   -1.0327n  685.0000m 
  686.00000m   -1.0334n  686.0000m 
  687.00000m   -1.0342n  687.0000m 
  688.00000m   -1.0350n  688.0000m 
  689.00000m   -1.0358n  689.0000m 
  690.00000m   -1.0366n  690.0000m 
  691.00000m   -1.0375n  691.0000m 
  692.00000m   -1.0384n  692.0000m 
  693.00000m   -1.0393n  693.0000m 
  694.00000m   -1.0403n  694.0000m 
  695.00000m   -1.0413n  695.0000m 
  696.00000m   -1.0423n  696.0000m 
  697.00000m   -1.0434n  697.0000m 
  698.00000m   -1.0445n  698.0000m 
  699.00000m   -1.0457n  699.0000m 
  700.00000m   -1.0469n  700.0000m 
  701.00000m   -1.0481n  701.0000m 
  702.00000m   -1.0494n  702.0000m 
  703.00000m   -1.0508n  703.0000m 
  704.00000m   -1.0522n  704.0000m 
  705.00000m   -1.0536n  705.0000m 
  706.00000m   -1.0551n  706.0000m 
  707.00000m   -1.0566n  707.0000m 
  708.00000m   -1.0582n  708.0000m 
  709.00000m   -1.0599n  709.0000m 
  710.00000m   -1.0616n  710.0000m 
  711.00000m   -1.0634n  711.0000m 
  712.00000m   -1.0652n  712.0000m 
  713.00000m   -1.0671n  713.0000m 
  714.00000m   -1.0691n  714.0000m 
  715.00000m   -1.0711n  715.0000m 
  716.00000m   -1.0732n  716.0000m 
  717.00000m   -1.0754n  717.0000m 
  718.00000m   -1.0777n  718.0000m 
  719.00000m   -1.0800n  719.0000m 
  720.00000m   -1.0825n  720.0000m 
  721.00000m   -1.0850n  721.0000m 
  722.00000m   -1.0876n  722.0000m 
  723.00000m   -1.0903n  723.0000m 
  724.00000m   -1.0931n  724.0000m 
  725.00000m   -1.0960n  725.0000m 
  726.00000m   -1.0990n  726.0000m 
  727.00000m   -1.1021n  727.0000m 
  728.00000m   -1.1053n  728.0000m 
  729.00000m   -1.1087n  729.0000m 
  730.00000m   -1.1121n  730.0000m 
  731.00000m   -1.1157n  731.0000m 
  732.00000m   -1.1194n  732.0000m 
  733.00000m   -1.1232n  733.0000m 
  734.00000m   -1.1272n  734.0000m 
  735.00000m   -1.1313n  735.0000m 
  736.00000m   -1.1356n  736.0000m 
  737.00000m   -1.1400n  737.0000m 
  738.00000m   -1.1445n  738.0000m 
  739.00000m   -1.1492n  739.0000m 
  740.00000m   -1.1541n  740.0000m 
  741.00000m   -1.1592n  741.0000m 
  742.00000m   -1.1644n  742.0000m 
  743.00000m   -1.1698n  743.0000m 
  744.00000m   -1.1754n  744.0000m 
  745.00000m   -1.1812n  745.0000m 
  746.00000m   -1.1872n  746.0000m 
  747.00000m   -1.1934n  747.0000m 
  748.00000m   -1.1998n  748.0000m 
  749.00000m   -1.2065n  749.0000m 
  750.00000m   -1.2133n  750.0000m 
  751.00000m   -1.2204n  751.0000m 
  752.00000m   -1.2278n  752.0000m 
  753.00000m   -1.2354n  753.0000m 
  754.00000m   -1.2433n  754.0000m 
  755.00000m   -1.2514n  755.0000m 
  756.00000m   -1.2598n  756.0000m 
  757.00000m   -1.2685n  757.0000m 
  758.00000m   -1.2775n  758.0000m 
  759.00000m   -1.2868n  759.0000m 
  760.00000m   -1.2964n  760.0000m 
  761.00000m   -1.3064n  761.0000m 
  762.00000m   -1.3167n  762.0000m 
  763.00000m   -1.3273n  763.0000m 
  764.00000m   -1.3383n  764.0000m 
  765.00000m   -1.3496n  765.0000m 
  766.00000m   -1.3614n  766.0000m 
  767.00000m   -1.3735n  767.0000m 
  768.00000m   -1.3860n  768.0000m 
  769.00000m   -1.3990n  769.0000m 
  770.00000m   -1.4124n  770.0000m 
  771.00000m   -1.4262n  771.0000m 
  772.00000m   -1.4405n  772.0000m 
  773.00000m   -1.4553n  773.0000m 
  774.00000m   -1.4705n  774.0000m 
  775.00000m   -1.4862n  775.0000m 
  776.00000m   -1.5025n  776.0000m 
  777.00000m   -1.5193n  777.0000m 
  778.00000m   -1.5366n  778.0000m 
  779.00000m   -1.5545n  779.0000m 
  780.00000m   -1.5730n  780.0000m 
  781.00000m   -1.5921n  781.0000m 
  782.00000m   -1.6117n  782.0000m 
  783.00000m   -1.6320n  783.0000m 
  784.00000m   -1.6530n  784.0000m 
  785.00000m   -1.6746n  785.0000m 
  786.00000m   -1.6969n  786.0000m 
  787.00000m   -1.7199n  787.0000m 
  788.00000m   -1.7436n  788.0000m 
  789.00000m   -1.7681n  789.0000m 
  790.00000m   -1.7933n  790.0000m 
  791.00000m   -1.8193n  791.0000m 
  792.00000m   -1.8461n  792.0000m 
  793.00000m   -1.8738n  793.0000m 
  794.00000m   -1.9022n  794.0000m 
  795.00000m   -1.9316n  795.0000m 
  796.00000m   -1.9618n  796.0000m 
  797.00000m   -1.9929n  797.0000m 
  798.00000m   -2.0250n  798.0000m 
  799.00000m   -2.0580n  799.0000m 
  800.00000m   -2.0920n  800.0000m 
  801.00000m   -2.1269n  801.0000m 
  802.00000m   -2.1629n  802.0000m 
  803.00000m   -2.2000n  803.0000m 
  804.00000m   -2.2381n  804.0000m 
  805.00000m   -2.2773n  805.0000m 
  806.00000m   -2.3176n  806.0000m 
  807.00000m   -2.3590n  807.0000m 
  808.00000m   -2.4016n  808.0000m 
  809.00000m   -2.4454n  809.0000m 
  810.00000m   -2.4904n  810.0000m 
  811.00000m   -2.5366n  811.0000m 
  812.00000m   -2.5841n  812.0000m 
  813.00000m   -2.6329n  813.0000m 
  814.00000m   -2.6829n  814.0000m 
  815.00000m   -2.7343n  815.0000m 
  816.00000m   -2.7870n  816.0000m 
  817.00000m   -2.8411n  817.0000m 
  818.00000m   -2.8966n  818.0000m 
  819.00000m   -2.9535n  819.0000m 
  820.00000m   -3.0119n  820.0000m 
  821.00000m   -3.0717n  821.0000m 
  822.00000m   -3.1329n  822.0000m 
  823.00000m   -3.1957n  823.0000m 
  824.00000m   -3.2600n  824.0000m 
  825.00000m   -3.3258n  825.0000m 
  826.00000m   -3.3932n  826.0000m 
  827.00000m   -3.4622n  827.0000m 
  828.00000m   -3.5328n  828.0000m 
  829.00000m   -3.6049n  829.0000m 
  830.00000m   -3.6787n  830.0000m 
  831.00000m   -3.7542n  831.0000m 
  832.00000m   -3.8313n  832.0000m 
  833.00000m   -3.9101n  833.0000m 
  834.00000m   -3.9906n  834.0000m 
  835.00000m   -4.0728n  835.0000m 
  836.00000m   -4.1567n  836.0000m 
  837.00000m   -4.2424n  837.0000m 
  838.00000m   -4.3298n  838.0000m 
  839.00000m   -4.4190n  839.0000m 
  840.00000m   -4.5099n  840.0000m 
  841.00000m   -4.6027n  841.0000m 
  842.00000m   -4.6972n  842.0000m 
  843.00000m   -4.7935n  843.0000m 
  844.00000m   -4.8917n  844.0000m 
  845.00000m   -4.9917n  845.0000m 
  846.00000m   -5.0935n  846.0000m 
  847.00000m   -5.1972n  847.0000m 
  848.00000m   -5.3028n  848.0000m 
  849.00000m   -5.4102n  849.0000m 
  850.00000m   -5.5195n  850.0000m 
  851.00000m   -5.6307n  851.0000m 
  852.00000m   -5.7438n  852.0000m 
  853.00000m   -5.8587n  853.0000m 
  854.00000m   -5.9757n  854.0000m 
  855.00000m   -6.0945n  855.0000m 
  856.00000m   -6.2153n  856.0000m 
  857.00000m   -6.3380n  857.0000m 
  858.00000m   -6.4627n  858.0000m 
  859.00000m   -6.5894n  859.0000m 
  860.00000m   -6.7180n  860.0000m 
  861.00000m   -6.8487n  861.0000m 
  862.00000m   -6.9813n  862.0000m 
  863.00000m   -7.1160n  863.0000m 
  864.00000m   -7.2527n  864.0000m 
  865.00000m   -7.3915n  865.0000m 
  866.00000m   -7.5323n  866.0000m 
  867.00000m   -7.6752n  867.0000m 
  868.00000m   -7.8202n  868.0000m 
  869.00000m   -7.9673n  869.0000m 
  870.00000m   -8.1166n  870.0000m 
  871.00000m   -8.2680n  871.0000m 
  872.00000m   -8.4216n  872.0000m 
  873.00000m   -8.5774n  873.0000m 
  874.00000m   -8.7353n  874.0000m 
  875.00000m   -8.8956n  875.0000m 
  876.00000m   -9.0580n  876.0000m 
  877.00000m   -9.2228n  877.0000m 
  878.00000m   -9.3898n  878.0000m 
  879.00000m   -9.5592n  879.0000m 
  880.00000m   -9.7310n  880.0000m 
  881.00000m   -9.9051n  881.0000m 
  882.00000m  -10.0816n  882.0000m 
  883.00000m  -10.2606n  883.0000m 
  884.00000m  -10.4420n  884.0000m 
  885.00000m  -10.6260n  885.0000m 
  886.00000m  -10.8124n  886.0000m 
  887.00000m  -11.0015n  887.0000m 
  888.00000m  -11.1931n  888.0000m 
  889.00000m  -11.3873n  889.0000m 
  890.00000m  -11.5843n  890.0000m 
  891.00000m  -11.7839n  891.0000m 
  892.00000m  -11.9862n  892.0000m 
  893.00000m  -12.1913n  893.0000m 
  894.00000m  -12.3992n  894.0000m 
  895.00000m  -12.6100n  895.0000m 
  896.00000m  -12.8236n  896.0000m 
  897.00000m  -13.0402n  897.0000m 
  898.00000m  -13.2597n  898.0000m 
  899.00000m  -13.4822n  899.0000m 
  900.00000m  -13.7078n  900.0000m 
  901.00000m  -13.9365n  901.0000m 
  902.00000m  -14.1683n  902.0000m 
  903.00000m  -14.4033n  903.0000m 
  904.00000m  -14.6415n  904.0000m 
  905.00000m  -14.8830n  905.0000m 
  906.00000m  -15.1278n  906.0000m 
  907.00000m  -15.3759n  907.0000m 
  908.00000m  -15.6275n  908.0000m 
  909.00000m  -15.8825n  909.0000m 
  910.00000m  -16.1411n  910.0000m 
  911.00000m  -16.4032n  911.0000m 
  912.00000m  -16.6689n  912.0000m 
  913.00000m  -16.9383n  913.0000m 
  914.00000m  -17.2114n  914.0000m 
  915.00000m  -17.4883n  915.0000m 
  916.00000m  -17.7690n  916.0000m 
  917.00000m  -18.0536n  917.0000m 
  918.00000m  -18.3422n  918.0000m 
  919.00000m  -18.6347n  919.0000m 
  920.00000m  -18.9313n  920.0000m 
  921.00000m  -19.2320n  921.0000m 
  922.00000m  -19.5369n  922.0000m 
  923.00000m  -19.8461n  923.0000m 
  924.00000m  -20.1595n  924.0000m 
  925.00000m  -20.4773n  925.0000m 
  926.00000m  -20.7995n  926.0000m 
  927.00000m  -21.1262n  927.0000m 
  928.00000m  -21.4574n  928.0000m 
  929.00000m  -21.7933n  929.0000m 
  930.00000m  -22.1338n  930.0000m 
  931.00000m  -22.4791n  931.0000m 
  932.00000m  -22.8292n  932.0000m 
  933.00000m  -23.1842n  933.0000m 
  934.00000m  -23.5442n  934.0000m 
  935.00000m  -23.9092n  935.0000m 
  936.00000m  -24.2793n  936.0000m 
  937.00000m  -24.6546n  937.0000m 
  938.00000m  -25.0352n  938.0000m 
  939.00000m  -25.4210n  939.0000m 
  940.00000m  -25.8123n  940.0000m 
  941.00000m  -26.2090n  941.0000m 
  942.00000m  -26.6114n  942.0000m 
  943.00000m  -27.0193n  943.0000m 
  944.00000m  -27.4330n  944.0000m 
  945.00000m  -27.8525n  945.0000m 
  946.00000m  -28.2778n  946.0000m 
  947.00000m  -28.7092n  947.0000m 
  948.00000m  -29.1465n  948.0000m 
  949.00000m  -29.5901n  949.0000m 
  950.00000m  -30.0398n  950.0000m 
  951.00000m  -30.4959n  951.0000m 
  952.00000m  -30.9584n  952.0000m 
  953.00000m  -31.4273n  953.0000m 
  954.00000m  -31.9029n  954.0000m 
  955.00000m  -32.3852n  955.0000m 
  956.00000m  -32.8742n  956.0000m 
  957.00000m  -33.3701n  957.0000m 
  958.00000m  -33.8729n  958.0000m 
  959.00000m  -34.3829n  959.0000m 
  960.00000m  -34.9000n  960.0000m 
  961.00000m  -35.4243n  961.0000m 
  962.00000m  -35.9561n  962.0000m 
  963.00000m  -36.4953n  963.0000m 
  964.00000m  -37.0421n  964.0000m 
  965.00000m  -37.5966n  965.0000m 
  966.00000m  -38.1589n  966.0000m 
  967.00000m  -38.7291n  967.0000m 
  968.00000m  -39.3073n  968.0000m 
  969.00000m  -39.8936n  969.0000m 
  970.00000m  -40.4882n  970.0000m 
  971.00000m  -41.0911n  971.0000m 
  972.00000m  -41.7025n  972.0000m 
  973.00000m  -42.3226n  973.0000m 
  974.00000m  -42.9513n  974.0000m 
  975.00000m  -43.5888n  975.0000m 
  976.00000m  -44.2353n  976.0000m 
  977.00000m  -44.8909n  977.0000m 
  978.00000m  -45.5558n  978.0000m 
  979.00000m  -46.2299n  979.0000m 
  980.00000m  -46.9135n  980.0000m 
  981.00000m  -47.6068n  981.0000m 
  982.00000m  -48.3097n  982.0000m 
  983.00000m  -49.0226n  983.0000m 
  984.00000m  -49.7455n  984.0000m 
  985.00000m  -50.4785n  985.0000m 
  986.00000m  -51.2218n  986.0000m 
  987.00000m  -51.9755n  987.0000m 
  988.00000m  -52.7399n  988.0000m 
  989.00000m  -53.5149n  989.0000m 
  990.00000m  -54.3008n  990.0000m 
  991.00000m  -55.0978n  991.0000m 
  992.00000m  -55.9059n  992.0000m 
  993.00000m  -56.7254n  993.0000m 
  994.00000m  -57.5563n  994.0000m 
  995.00000m  -58.3989n  995.0000m 
  996.00000m  -59.2533n  996.0000m 
  997.00000m  -60.1196n  997.0000m 
  998.00000m  -60.9981n  998.0000m 
  999.00000m  -61.8889n  999.0000m 
    1.00000   -62.7922n    1.0000  
y

          ***** job concluded
 ******  
 

 ****** job statistics summary tnom=  25.000 temp=  25.000 ******

  ******  Circuit Statistics  ******
  # nodes       =       7 # elements   =       3
  # resistors   =       0 # capacitors =       0 # inductors   =       0
  # mutual_inds =       0 # vccs       =       0 # vcvs        =       0
  # cccs        =       0 # ccvs       =       0 # volt_srcs   =       2
  # curr_srcs   =       0 # diodes     =       0 # bjts        =       0
  # jfets       =       0 # mosfets    =       1 # U elements  =       0
  # T elements  =       0 # W elements =       0 # B elements  =       0
  # S elements  =       0 # P elements =       0 # va device   =       0
  # vector_srcs =       0 # N elements =       0


  ******  Runtime Statistics (seconds)  ******

  analysis           time    # points   tot. iter  conv.iter
  op point           0.00           1           0
  dc sweep           0.03        1001        2004
  readin             0.00
  errchk             0.00
  setup              0.00
  output             0.00


           peak memory used         63.80 megabytes
           total cpu time            0.04 seconds
           total elapsed time        0.05 seconds
           job started at     23:56:51 11/02/2021
           job ended   at     23:56:51 11/02/2021


  lic: Release hspice token(s) 
 lic: total license checkout elapse time:        0.02(s)
