 ****** HSPICE -- O-2018.09-SP2 win64 (Feb 25 2019) ******                      
  Copyright (c) 1986 - 2021 by Synopsys, Inc. All Rights Reserved.              
  This software and the associated documentation are proprietary
  to Synopsys, Inc. This software may only be used in accordance
  with the terms and conditions of a written license agreement with
  Synopsys, Inc. All other use, reproduction, or distribution of
  this software is strictly prohibited.
  Input File: pmos@0.5u.sp                                                      
  Command line options: C:\synopsys\Hspice_O-2018.09-SP2\WIN64\hspice.com -i pmos@0.5u.sp -o C:\sdsy\case1\pmos@0.5u.lis
  Start time: Fri Oct 29 10:21:02 2021
  lic:  
  lic: FLEXlm: SDK_11.7.3 
  lic: USER:   admin                HOSTNAME: DESKTOP-3KO7170 
  lic: HOSTID: "d83bbfb49802"       PID:      51568 
  lic: Using FLEXlm license file: 
  lic: 27000@DESKTOP-3KO7170 
  lic: Checkout 1 hspice 
  lic: License/Maintenance for hspice will expire on 30-dec-2029/2019.2019 
  lic: 1(in_use)/99(total) FLOATING license(s) on SERVER 27000@DESKTOP-3KO7170 
  lic:   
  **error** (pmos@0.5u.sp:4) Undefined parameter or function definition "vdd" for vdd. Please enter a defined name.

          ***** job aborted
1****** HSPICE -- O-2018.09-SP2 win64 (Feb 25 2019) ******                      
 ******  
 .param vg = 1 vdd = 0.5 vds = 5

 ****** job statistics summary tnom=  25.000 temp=  25.000 ******

  ******  HSPICE Threads Information  ******

  Command Line Threads Count :     1
  Available CPU Count        :     8
  Actual Threads Count       :     1


  ******  Circuit Statistics  ******
  # nodes       =       0 # elements   =       3
  # resistors   =       0 # capacitors =       0 # inductors   =       0
  # mutual_inds =       0 # vccs       =       0 # vcvs        =       0
  # cccs        =       0 # ccvs       =       0 # volt_srcs   =       2
  # curr_srcs   =       0 # diodes     =       0 # bjts        =       0
  # jfets       =       0 # mosfets    =       1 # U elements  =       0
  # T elements  =       0 # W elements =       0 # B elements  =       0
  # S elements  =       0 # P elements =       0 # va device   =       0
  # vector_srcs =       0 # N elements =       0


  ******  Runtime Statistics (seconds)  ******

  analysis           time    # points   tot. iter  conv.iter
  op point           0.00           1           0
  readin             0.01
  errchk             0.00
  setup              0.00
  output             0.00


           peak memory used         61.50 megabytes
           total cpu time            0.01 seconds
           total elapsed time        0.03 seconds
           job started at     10:21:02 10/29/2021
           job ended   at     10:21:02 10/29/2021


  **error** (pmos@0.5u.sp:5) Undefined parameter or function definition "vds" for vin. Please enter a defined name.

          ***** job aborted
 ******  
 .param vg = 1 vdd = 0.5 vds = 5

 ****** job statistics summary tnom=  25.000 temp=  25.000 ******

  ******  Circuit Statistics  ******
  # nodes       =       0 # elements   =       3
  # resistors   =       0 # capacitors =       0 # inductors   =       0
  # mutual_inds =       0 # vccs       =       0 # vcvs        =       0
  # cccs        =       0 # ccvs       =       0 # volt_srcs   =       2
  # curr_srcs   =       0 # diodes     =       0 # bjts        =       0
  # jfets       =       0 # mosfets    =       1 # U elements  =       0
  # T elements  =       0 # W elements =       0 # B elements  =       0
  # S elements  =       0 # P elements =       0 # va device   =       0
  # vector_srcs =       0 # N elements =       0


  ******  Runtime Statistics (seconds)  ******

  analysis           time    # points   tot. iter  conv.iter
  op point           0.00           1           0
  readin             0.00
  errchk             0.00
  setup              0.00
  output             0.00


           peak memory used         62.49 megabytes
           total cpu time            0.00 seconds
           total elapsed time        0.02 seconds
           job started at     10:21:02 10/29/2021
           job ended   at     10:21:02 10/29/2021


  **error** (pmos@0.5u.sp:5) Undefined parameter or function definition "vds" for vin. Please enter a defined name.

          ***** job aborted
 ******  
 .param vg = 1 vdd = 0.5 vds = 5

 ****** job statistics summary tnom=  25.000 temp=  25.000 ******

  ******  Circuit Statistics  ******
  # nodes       =       0 # elements   =       3
  # resistors   =       0 # capacitors =       0 # inductors   =       0
  # mutual_inds =       0 # vccs       =       0 # vcvs        =       0
  # cccs        =       0 # ccvs       =       0 # volt_srcs   =       2
  # curr_srcs   =       0 # diodes     =       0 # bjts        =       0
  # jfets       =       0 # mosfets    =       1 # U elements  =       0
  # T elements  =       0 # W elements =       0 # B elements  =       0
  # S elements  =       0 # P elements =       0 # va device   =       0
  # vector_srcs =       0 # N elements =       0


  ******  Runtime Statistics (seconds)  ******

  analysis           time    # points   tot. iter  conv.iter
  op point           0.00           1           0
  readin             0.00
  errchk             0.00
  setup              0.00
  output             0.00


           peak memory used         62.49 megabytes
           total cpu time            0.00 seconds
           total elapsed time        0.01 seconds
           job started at     10:21:02 10/29/2021
           job ended   at     10:21:02 10/29/2021


  **error** (pmos@0.5u.sp:5) Undefined parameter or function definition "vds" for vin. Please enter a defined name.

          ***** job aborted
 ******  
 .param vg = 1 vdd = 0.5 vds = 5

 ****** job statistics summary tnom=  25.000 temp=  25.000 ******

  ******  Circuit Statistics  ******
  # nodes       =       0 # elements   =       3
  # resistors   =       0 # capacitors =       0 # inductors   =       0
  # mutual_inds =       0 # vccs       =       0 # vcvs        =       0
  # cccs        =       0 # ccvs       =       0 # volt_srcs   =       2
  # curr_srcs   =       0 # diodes     =       0 # bjts        =       0
  # jfets       =       0 # mosfets    =       1 # U elements  =       0
  # T elements  =       0 # W elements =       0 # B elements  =       0
  # S elements  =       0 # P elements =       0 # va device   =       0
  # vector_srcs =       0 # N elements =       0


  ******  Runtime Statistics (seconds)  ******

  analysis           time    # points   tot. iter  conv.iter
  op point           0.00           1           0
  readin             0.00
  errchk             0.00
  setup              0.00
  output             0.00


           peak memory used         62.49 megabytes
           total cpu time            0.01 seconds
           total elapsed time        0.01 seconds
           job started at     10:21:02 10/29/2021
           job ended   at     10:21:02 10/29/2021


  **error** (pmos@0.5u.sp:5) Undefined parameter or function definition "vds" for vin. Please enter a defined name.

          ***** job aborted
 ******  
 .param vg = 1 vdd = 0.5 vds = 5

 ****** job statistics summary tnom=  25.000 temp=  25.000 ******

  ******  Circuit Statistics  ******
  # nodes       =       0 # elements   =       3
  # resistors   =       0 # capacitors =       0 # inductors   =       0
  # mutual_inds =       0 # vccs       =       0 # vcvs        =       0
  # cccs        =       0 # ccvs       =       0 # volt_srcs   =       2
  # curr_srcs   =       0 # diodes     =       0 # bjts        =       0
  # jfets       =       0 # mosfets    =       1 # U elements  =       0
  # T elements  =       0 # W elements =       0 # B elements  =       0
  # S elements  =       0 # P elements =       0 # va device   =       0
  # vector_srcs =       0 # N elements =       0


  ******  Runtime Statistics (seconds)  ******

  analysis           time    # points   tot. iter  conv.iter
  op point           0.00           1           0
  readin             0.00
  errchk             0.00
  setup              0.00
  output             0.00


           peak memory used         62.49 megabytes
           total cpu time            0.00 seconds
           total elapsed time        0.02 seconds
           job started at     10:21:02 10/29/2021
           job ended   at     10:21:02 10/29/2021


  lic: Release hspice token(s) 
 lic: total license checkout elapse time:        0.02(s)
