 ****** HSPICE -- O-2018.09-SP2 win64 (Feb 25 2019) ******                      
  Copyright (c) 1986 - 2021 by Synopsys, Inc. All Rights Reserved.              
  This software and the associated documentation are proprietary
  to Synopsys, Inc. This software may only be used in accordance
  with the terms and conditions of a written license agreement with
  Synopsys, Inc. All other use, reproduction, or distribution of
  this software is strictly prohibited.
  Input File: buffer.sp                                                         
  Command line options: C:\synopsys\Hspice_O-2018.09-SP2\WIN64\hspice.com -i buffer.sp -o C:\sdsy\task2\case3\buffer.lis
  Start time: Sun Nov 14 18:40:01 2021
  lic:  
  lic: FLEXlm: SDK_11.7.3 
  lic: USER:   admin                HOSTNAME: DESKTOP-3KO7170 
  lic: HOSTID: "d83bbfb49802"       PID:      23876 
  lic: Using FLEXlm license file: 
  lic: 27000@DESKTOP-3KO7170 
  lic: Checkout 1 hspice 
  lic: License/Maintenance for hspice will expire on 30-dec-2029/2019.2019 
  lic: 1(in_use)/99(total) FLOATING license(s) on SERVER 27000@DESKTOP-3KO7170 
  lic:   
  **info** (buffer.sp:14) DC voltage reset to initial transient source value in source 0:vin. new dc=0.0000D+00
  
      

Element variations(Local):   element              parameter
 **info** set option symb=1 internally to help for convergence.
 *****************************************************************
 ******  option summary
 ******
 runlvl  = 3         bypass  = 2.0000    
 **info** dc convergence successful at Newton-Raphson method 
1****** HSPICE -- O-2018.09-SP2 win64 (Feb 25 2019) ******                      
 ******  
 

 ****** operating point information tnom=  25.000 temp=  25.000 ******
 ****** operating point status is voltage   simulation time is     0.     
    node    =voltage      node    =voltage      node    =voltage

 +0:vdd     =   1.0000  0:vin     =   0.      0:vout    = 999.9836m
 +0:vout2   =  14.6248u

 ******
 

 ****** transient analysis tnom=  25.000 temp=  25.000 ******
x

 time         voltage    voltage   
             vin        vout       
    0.          0.       999.9836m 
    1.00000p    0.       999.9836m 
    2.00000p    0.       999.9836m 
    3.00000p    0.       999.9836m 
    4.00000p    0.       999.9836m 
    5.00000p    0.       999.9836m 
    6.00000p    0.       999.9836m 
    7.00000p    0.       999.9836m 
    8.00000p    0.       999.9836m 
    9.00000p    0.       999.9836m 
   10.00000p    0.       999.9836m 
   11.00000p    0.       999.9836m 
   12.00000p    0.       999.9836m 
   13.00000p    0.       999.9836m 
   14.00000p    0.       999.9836m 
   15.00000p    0.       999.9836m 
   16.00000p    0.       999.9836m 
   17.00000p    0.       999.9836m 
   18.00000p    0.       999.9836m 
   19.00000p    0.       999.9836m 
   20.00000p    0.       999.9836m 
   21.00000p    0.       999.9836m 
   22.00000p    0.       999.9836m 
   23.00000p    0.       999.9836m 
   24.00000p    0.       999.9836m 
   25.00000p    0.       999.9836m 
   26.00000p    0.       999.9836m 
   27.00000p    0.       999.9836m 
   28.00000p    0.       999.9836m 
   29.00000p    0.       999.9836m 
   30.00000p    0.       999.9836m 
   31.00000p    0.       999.9836m 
   32.00000p    0.       999.9836m 
   33.00000p    0.       999.9836m 
   34.00000p    0.       999.9836m 
   35.00000p    0.       999.9836m 
   36.00000p    0.       999.9836m 
   37.00000p    0.       999.9836m 
   38.00000p    0.       999.9836m 
   39.00000p    0.       999.9836m 
   40.00000p    0.       999.9836m 
   41.00000p    0.       999.9836m 
   42.00000p    0.       999.9836m 
   43.00000p    0.       999.9836m 
   44.00000p    0.       999.9836m 
   45.00000p    0.       999.9836m 
   46.00000p    0.       999.9836m 
   47.00000p    0.       999.9836m 
   48.00000p    0.       999.9836m 
   49.00000p    0.       999.9836m 
   50.00000p    0.       999.9836m 
   51.00000p    0.       999.9836m 
   52.00000p    0.       999.9836m 
   53.00000p    0.       999.9836m 
   54.00000p    0.       999.9836m 
   55.00000p    0.       999.9836m 
   56.00000p    0.       999.9836m 
   57.00000p    0.       999.9836m 
   58.00000p    0.       999.9836m 
   59.00000p    0.       999.9836m 
   60.00000p    0.       999.9836m 
   61.00000p    0.       999.9836m 
   62.00000p    0.       999.9836m 
   63.00000p    0.       999.9836m 
   64.00000p    0.       999.9836m 
   65.00000p    0.       999.9836m 
   66.00000p    0.       999.9836m 
   67.00000p    0.       999.9836m 
   68.00000p    0.       999.9836m 
   69.00000p    0.       999.9836m 
   70.00000p    0.       999.9836m 
   71.00000p    0.       999.9836m 
   72.00000p    0.       999.9836m 
   73.00000p    0.       999.9836m 
   74.00000p    0.       999.9836m 
   75.00000p    0.       999.9836m 
   76.00000p    0.       999.9836m 
   77.00000p    0.       999.9836m 
   78.00000p    0.       999.9836m 
   79.00000p    0.       999.9836m 
   80.00000p    0.       999.9836m 
   81.00000p    0.       999.9836m 
   82.00000p    0.       999.9836m 
   83.00000p    0.       999.9836m 
   84.00000p    0.       999.9836m 
   85.00000p    0.       999.9836m 
   86.00000p    0.       999.9836m 
   87.00000p    0.       999.9836m 
   88.00000p    0.       999.9836m 
   89.00000p    0.       999.9836m 
   90.00000p    0.       999.9836m 
   91.00000p    0.       999.9836m 
   92.00000p    0.       999.9836m 
   93.00000p    0.       999.9836m 
   94.00000p    0.       999.9836m 
   95.00000p    0.       999.9836m 
   96.00000p    0.       999.9836m 
   97.00000p    0.       999.9836m 
   98.00000p    0.       999.9836m 
   99.00000p    0.       999.9836m 
  100.00000p    0.       999.9836m 
  101.00000p    0.       999.9836m 
  102.00000p    0.       999.9836m 
  103.00000p    0.       999.9836m 
  104.00000p    0.       999.9836m 
  105.00000p    0.       999.9836m 
  106.00000p    0.       999.9836m 
  107.00000p    0.       999.9836m 
  108.00000p    0.       999.9836m 
  109.00000p    0.       999.9836m 
  110.00000p    0.       999.9836m 
  111.00000p    0.       999.9836m 
  112.00000p    0.       999.9836m 
  113.00000p    0.       999.9836m 
  114.00000p    0.       999.9836m 
  115.00000p    0.       999.9836m 
  116.00000p    0.       999.9836m 
  117.00000p    0.       999.9836m 
  118.00000p    0.       999.9836m 
  119.00000p    0.       999.9836m 
  120.00000p    0.       999.9836m 
  121.00000p    0.       999.9836m 
  122.00000p    0.       999.9836m 
  123.00000p    0.       999.9836m 
  124.00000p    0.       999.9836m 
  125.00000p    0.       999.9836m 
  126.00000p    0.       999.9836m 
  127.00000p    0.       999.9836m 
  128.00000p    0.       999.9836m 
  129.00000p    0.       999.9836m 
  130.00000p    0.       999.9836m 
  131.00000p    0.       999.9836m 
  132.00000p    0.       999.9836m 
  133.00000p    0.       999.9836m 
  134.00000p    0.       999.9836m 
  135.00000p    0.       999.9836m 
  136.00000p    0.       999.9836m 
  137.00000p    0.       999.9836m 
  138.00000p    0.       999.9836m 
  139.00000p    0.       999.9836m 
  140.00000p    0.       999.9836m 
  141.00000p    0.       999.9836m 
  142.00000p    0.       999.9836m 
  143.00000p    0.       999.9836m 
  144.00000p    0.       999.9836m 
  145.00000p    0.       999.9836m 
  146.00000p    0.       999.9836m 
  147.00000p    0.       999.9836m 
  148.00000p    0.       999.9836m 
  149.00000p    0.       999.9836m 
  150.00000p    0.       999.9836m 
  151.00000p    0.       999.9836m 
  152.00000p    0.       999.9836m 
  153.00000p    0.       999.9836m 
  154.00000p    0.       999.9836m 
  155.00000p    0.       999.9836m 
  156.00000p    0.       999.9836m 
  157.00000p    0.       999.9836m 
  158.00000p    0.       999.9836m 
  159.00000p    0.       999.9836m 
  160.00000p    0.       999.9836m 
  161.00000p    0.       999.9836m 
  162.00000p    0.       999.9836m 
  163.00000p    0.       999.9836m 
  164.00000p    0.       999.9836m 
  165.00000p    0.       999.9836m 
  166.00000p    0.       999.9836m 
  167.00000p    0.       999.9836m 
  168.00000p    0.       999.9836m 
  169.00000p    0.       999.9836m 
  170.00000p    0.       999.9836m 
  171.00000p    0.       999.9836m 
  172.00000p    0.       999.9836m 
  173.00000p    0.       999.9836m 
  174.00000p    0.       999.9836m 
  175.00000p    0.       999.9836m 
  176.00000p    0.       999.9836m 
  177.00000p    0.       999.9836m 
  178.00000p    0.       999.9836m 
  179.00000p    0.       999.9836m 
  180.00000p    0.       999.9836m 
  181.00000p    0.       999.9836m 
  182.00000p    0.       999.9836m 
  183.00000p    0.       999.9836m 
  184.00000p    0.       999.9836m 
  185.00000p    0.       999.9836m 
  186.00000p    0.       999.9836m 
  187.00000p    0.       999.9836m 
  188.00000p    0.       999.9836m 
  189.00000p    0.       999.9836m 
  190.00000p    0.       999.9836m 
  191.00000p    0.       999.9836m 
  192.00000p    0.       999.9836m 
  193.00000p    0.       999.9836m 
  194.00000p    0.       999.9836m 
  195.00000p    0.       999.9836m 
  196.00000p    0.       999.9836m 
  197.00000p    0.       999.9836m 
  198.00000p    0.       999.9836m 
  199.00000p    0.       999.9836m 
  200.00000p    0.       999.9836m 
  201.00000p    0.       999.9836m 
  202.00000p    0.       999.9836m 
  203.00000p    0.       999.9836m 
  204.00000p    0.       999.9836m 
  205.00000p    0.       999.9836m 
  206.00000p    0.       999.9836m 
  207.00000p    0.       999.9836m 
  208.00000p    0.       999.9836m 
  209.00000p    0.       999.9836m 
  210.00000p    0.       999.9836m 
  211.00000p    0.       999.9836m 
  212.00000p    0.       999.9836m 
  213.00000p    0.       999.9836m 
  214.00000p    0.       999.9836m 
  215.00000p    0.       999.9836m 
  216.00000p    0.       999.9836m 
  217.00000p    0.       999.9836m 
  218.00000p    0.       999.9836m 
  219.00000p    0.       999.9836m 
  220.00000p    0.       999.9836m 
  221.00000p    0.       999.9836m 
  222.00000p    0.       999.9836m 
  223.00000p    0.       999.9836m 
  224.00000p    0.       999.9836m 
  225.00000p    0.       999.9836m 
  226.00000p    0.       999.9836m 
  227.00000p    0.       999.9836m 
  228.00000p    0.       999.9836m 
  229.00000p    0.       999.9836m 
  230.00000p    0.       999.9836m 
  231.00000p    0.       999.9836m 
  232.00000p    0.       999.9836m 
  233.00000p    0.       999.9836m 
  234.00000p    0.       999.9836m 
  235.00000p    0.       999.9836m 
  236.00000p    0.       999.9836m 
  237.00000p    0.       999.9836m 
  238.00000p    0.       999.9836m 
  239.00000p    0.       999.9836m 
  240.00000p    0.       999.9836m 
  241.00000p    0.       999.9836m 
  242.00000p    0.       999.9836m 
  243.00000p    0.       999.9836m 
  244.00000p    0.       999.9836m 
  245.00000p    0.       999.9836m 
  246.00000p    0.       999.9836m 
  247.00000p    0.       999.9836m 
  248.00000p    0.       999.9836m 
  249.00000p    0.       999.9836m 
  250.00000p    0.       999.9836m 
  251.00000p    0.       999.9836m 
  252.00000p    0.       999.9836m 
  253.00000p    0.       999.9836m 
  254.00000p    0.       999.9836m 
  255.00000p    0.       999.9836m 
  256.00000p    0.       999.9836m 
  257.00000p    0.       999.9836m 
  258.00000p    0.       999.9836m 
  259.00000p    0.       999.9836m 
  260.00000p    0.       999.9836m 
  261.00000p    0.       999.9836m 
  262.00000p    0.       999.9836m 
  263.00000p    0.       999.9836m 
  264.00000p    0.       999.9836m 
  265.00000p    0.       999.9836m 
  266.00000p    0.       999.9836m 
  267.00000p    0.       999.9836m 
  268.00000p    0.       999.9836m 
  269.00000p    0.       999.9836m 
  270.00000p    0.       999.9836m 
  271.00000p    0.       999.9836m 
  272.00000p    0.       999.9836m 
  273.00000p    0.       999.9836m 
  274.00000p    0.       999.9836m 
  275.00000p    0.       999.9836m 
  276.00000p    0.       999.9836m 
  277.00000p    0.       999.9836m 
  278.00000p    0.       999.9836m 
  279.00000p    0.       999.9836m 
  280.00000p    0.       999.9836m 
  281.00000p    0.       999.9836m 
  282.00000p    0.       999.9836m 
  283.00000p    0.       999.9836m 
  284.00000p    0.       999.9836m 
  285.00000p    0.       999.9836m 
  286.00000p    0.       999.9836m 
  287.00000p    0.       999.9836m 
  288.00000p    0.       999.9836m 
  289.00000p    0.       999.9836m 
  290.00000p    0.       999.9836m 
  291.00000p    0.       999.9836m 
  292.00000p    0.       999.9836m 
  293.00000p    0.       999.9836m 
  294.00000p    0.       999.9836m 
  295.00000p    0.       999.9836m 
  296.00000p    0.       999.9836m 
  297.00000p    0.       999.9836m 
  298.00000p    0.       999.9836m 
  299.00000p    0.       999.9836m 
  300.00000p    0.       999.9836m 
  301.00000p    0.       999.9836m 
  302.00000p    0.       999.9836m 
  303.00000p    0.       999.9836m 
  304.00000p    0.       999.9836m 
  305.00000p    0.       999.9836m 
  306.00000p    0.       999.9836m 
  307.00000p    0.       999.9836m 
  308.00000p    0.       999.9836m 
  309.00000p    0.       999.9836m 
  310.00000p    0.       999.9836m 
  311.00000p    0.       999.9836m 
  312.00000p    0.       999.9836m 
  313.00000p    0.       999.9836m 
  314.00000p    0.       999.9836m 
  315.00000p    0.       999.9836m 
  316.00000p    0.       999.9836m 
  317.00000p    0.       999.9836m 
  318.00000p    0.       999.9836m 
  319.00000p    0.       999.9836m 
  320.00000p    0.       999.9836m 
  321.00000p    0.       999.9836m 
  322.00000p    0.       999.9836m 
  323.00000p    0.       999.9836m 
  324.00000p    0.       999.9836m 
  325.00000p    0.       999.9836m 
  326.00000p    0.       999.9836m 
  327.00000p    0.       999.9836m 
  328.00000p    0.       999.9836m 
  329.00000p    0.       999.9836m 
  330.00000p    0.       999.9836m 
  331.00000p    0.       999.9836m 
  332.00000p    0.       999.9836m 
  333.00000p    0.       999.9836m 
  334.00000p    0.       999.9836m 
  335.00000p    0.       999.9836m 
  336.00000p    0.       999.9836m 
  337.00000p    0.       999.9836m 
  338.00000p    0.       999.9836m 
  339.00000p    0.       999.9836m 
  340.00000p    0.       999.9836m 
  341.00000p    0.       999.9836m 
  342.00000p    0.       999.9836m 
  343.00000p    0.       999.9836m 
  344.00000p    0.       999.9836m 
  345.00000p    0.       999.9836m 
  346.00000p    0.       999.9836m 
  347.00000p    0.       999.9836m 
  348.00000p    0.       999.9836m 
  349.00000p    0.       999.9836m 
  350.00000p    0.       999.9836m 
  351.00000p    0.       999.9836m 
  352.00000p    0.       999.9836m 
  353.00000p    0.       999.9836m 
  354.00000p    0.       999.9836m 
  355.00000p    0.       999.9836m 
  356.00000p    0.       999.9836m 
  357.00000p    0.       999.9836m 
  358.00000p    0.       999.9836m 
  359.00000p    0.       999.9836m 
  360.00000p    0.       999.9836m 
  361.00000p    0.       999.9836m 
  362.00000p    0.       999.9836m 
  363.00000p    0.       999.9836m 
  364.00000p    0.       999.9836m 
  365.00000p    0.       999.9836m 
  366.00000p    0.       999.9836m 
  367.00000p    0.       999.9836m 
  368.00000p    0.       999.9836m 
  369.00000p    0.       999.9836m 
  370.00000p    0.       999.9836m 
  371.00000p    0.       999.9836m 
  372.00000p    0.       999.9836m 
  373.00000p    0.       999.9836m 
  374.00000p    0.       999.9836m 
  375.00000p    0.       999.9836m 
  376.00000p    0.       999.9836m 
  377.00000p    0.       999.9836m 
  378.00000p    0.       999.9836m 
  379.00000p    0.       999.9836m 
  380.00000p    0.       999.9836m 
  381.00000p    0.       999.9836m 
  382.00000p    0.       999.9836m 
  383.00000p    0.       999.9836m 
  384.00000p    0.       999.9836m 
  385.00000p    0.       999.9836m 
  386.00000p    0.       999.9836m 
  387.00000p    0.       999.9836m 
  388.00000p    0.       999.9836m 
  389.00000p    0.       999.9836m 
  390.00000p    0.       999.9836m 
  391.00000p    0.       999.9836m 
  392.00000p    0.       999.9836m 
  393.00000p    0.       999.9836m 
  394.00000p    0.       999.9836m 
  395.00000p    0.       999.9836m 
  396.00000p    0.       999.9836m 
  397.00000p    0.       999.9836m 
  398.00000p    0.       999.9836m 
  399.00000p    0.       999.9836m 
  400.00000p    0.       999.9836m 
  401.00000p    0.       999.9836m 
  402.00000p    0.       999.9836m 
  403.00000p    0.       999.9836m 
  404.00000p    0.       999.9836m 
  405.00000p    0.       999.9836m 
  406.00000p    0.       999.9836m 
  407.00000p    0.       999.9836m 
  408.00000p    0.       999.9836m 
  409.00000p    0.       999.9836m 
  410.00000p    0.       999.9836m 
  411.00000p    0.       999.9836m 
  412.00000p    0.       999.9836m 
  413.00000p    0.       999.9836m 
  414.00000p    0.       999.9836m 
  415.00000p    0.       999.9836m 
  416.00000p    0.       999.9836m 
  417.00000p    0.       999.9836m 
  418.00000p    0.       999.9836m 
  419.00000p    0.       999.9836m 
  420.00000p    0.       999.9836m 
  421.00000p    0.       999.9836m 
  422.00000p    0.       999.9836m 
  423.00000p    0.       999.9836m 
  424.00000p    0.       999.9836m 
  425.00000p    0.       999.9836m 
  426.00000p    0.       999.9836m 
  427.00000p    0.       999.9836m 
  428.00000p    0.       999.9836m 
  429.00000p    0.       999.9836m 
  430.00000p    0.       999.9836m 
  431.00000p    0.       999.9836m 
  432.00000p    0.       999.9836m 
  433.00000p    0.       999.9836m 
  434.00000p    0.       999.9836m 
  435.00000p    0.       999.9836m 
  436.00000p    0.       999.9836m 
  437.00000p    0.       999.9836m 
  438.00000p    0.       999.9836m 
  439.00000p    0.       999.9836m 
  440.00000p    0.       999.9836m 
  441.00000p    0.       999.9836m 
  442.00000p    0.       999.9836m 
  443.00000p    0.       999.9836m 
  444.00000p    0.       999.9836m 
  445.00000p    0.       999.9836m 
  446.00000p    0.       999.9836m 
  447.00000p    0.       999.9836m 
  448.00000p    0.       999.9836m 
  449.00000p    0.       999.9836m 
  450.00000p    0.       999.9836m 
  451.00000p    0.       999.9836m 
  452.00000p    0.       999.9836m 
  453.00000p    0.       999.9836m 
  454.00000p    0.       999.9836m 
  455.00000p    0.       999.9836m 
  456.00000p    0.       999.9836m 
  457.00000p    0.       999.9836m 
  458.00000p    0.       999.9836m 
  459.00000p    0.       999.9836m 
  460.00000p    0.       999.9836m 
  461.00000p    0.       999.9836m 
  462.00000p    0.       999.9836m 
  463.00000p    0.       999.9836m 
  464.00000p    0.       999.9836m 
  465.00000p    0.       999.9836m 
  466.00000p    0.       999.9836m 
  467.00000p    0.       999.9836m 
  468.00000p    0.       999.9836m 
  469.00000p    0.       999.9836m 
  470.00000p    0.       999.9836m 
  471.00000p    0.       999.9836m 
  472.00000p    0.       999.9836m 
  473.00000p    0.       999.9836m 
  474.00000p    0.       999.9836m 
  475.00000p    0.       999.9836m 
  476.00000p    0.       999.9836m 
  477.00000p    0.       999.9836m 
  478.00000p    0.       999.9836m 
  479.00000p    0.       999.9836m 
  480.00000p    0.       999.9836m 
  481.00000p    0.       999.9836m 
  482.00000p    0.       999.9836m 
  483.00000p    0.       999.9836m 
  484.00000p    0.       999.9836m 
  485.00000p    0.       999.9836m 
  486.00000p    0.       999.9836m 
  487.00000p    0.       999.9836m 
  488.00000p    0.       999.9836m 
  489.00000p    0.       999.9836m 
  490.00000p    0.       999.9836m 
  491.00000p    0.       999.9836m 
  492.00000p    0.       999.9836m 
  493.00000p    0.       999.9836m 
  494.00000p    0.       999.9836m 
  495.00000p    0.       999.9836m 
  496.00000p    0.       999.9836m 
  497.00000p    0.       999.9836m 
  498.00000p    0.       999.9836m 
  499.00000p    0.       999.9836m 
  500.00000p    0.       999.9836m 
  501.00000p    0.       999.9836m 
  502.00000p    0.       999.9836m 
  503.00000p    0.       999.9836m 
  504.00000p    0.       999.9836m 
  505.00000p    0.       999.9836m 
  506.00000p    0.       999.9836m 
  507.00000p    0.       999.9836m 
  508.00000p    0.       999.9836m 
  509.00000p    0.       999.9836m 
  510.00000p    0.       999.9836m 
  511.00000p    0.       999.9836m 
  512.00000p    0.       999.9836m 
  513.00000p    0.       999.9836m 
  514.00000p    0.       999.9836m 
  515.00000p    0.       999.9836m 
  516.00000p    0.       999.9836m 
  517.00000p    0.       999.9836m 
  518.00000p    0.       999.9836m 
  519.00000p    0.       999.9836m 
  520.00000p    0.       999.9836m 
  521.00000p    0.       999.9836m 
  522.00000p    0.       999.9836m 
  523.00000p    0.       999.9836m 
  524.00000p    0.       999.9836m 
  525.00000p    0.       999.9836m 
  526.00000p    0.       999.9836m 
  527.00000p    0.       999.9836m 
  528.00000p    0.       999.9836m 
  529.00000p    0.       999.9836m 
  530.00000p    0.       999.9836m 
  531.00000p    0.       999.9836m 
  532.00000p    0.       999.9836m 
  533.00000p    0.       999.9836m 
  534.00000p    0.       999.9836m 
  535.00000p    0.       999.9836m 
  536.00000p    0.       999.9836m 
  537.00000p    0.       999.9836m 
  538.00000p    0.       999.9836m 
  539.00000p    0.       999.9836m 
  540.00000p    0.       999.9836m 
  541.00000p    0.       999.9836m 
  542.00000p    0.       999.9836m 
  543.00000p    0.       999.9836m 
  544.00000p    0.       999.9836m 
  545.00000p    0.       999.9836m 
  546.00000p    0.       999.9836m 
  547.00000p    0.       999.9836m 
  548.00000p    0.       999.9836m 
  549.00000p    0.       999.9836m 
  550.00000p    0.       999.9836m 
  551.00000p    0.       999.9836m 
  552.00000p    0.       999.9836m 
  553.00000p    0.       999.9836m 
  554.00000p    0.       999.9836m 
  555.00000p    0.       999.9836m 
  556.00000p    0.       999.9836m 
  557.00000p    0.       999.9836m 
  558.00000p    0.       999.9836m 
  559.00000p    0.       999.9836m 
  560.00000p    0.       999.9836m 
  561.00000p    0.       999.9836m 
  562.00000p    0.       999.9836m 
  563.00000p    0.       999.9836m 
  564.00000p    0.       999.9836m 
  565.00000p    0.       999.9836m 
  566.00000p    0.       999.9836m 
  567.00000p    0.       999.9836m 
  568.00000p    0.       999.9836m 
  569.00000p    0.       999.9836m 
  570.00000p    0.       999.9836m 
  571.00000p    0.       999.9836m 
  572.00000p    0.       999.9836m 
  573.00000p    0.       999.9836m 
  574.00000p    0.       999.9836m 
  575.00000p    0.       999.9836m 
  576.00000p    0.       999.9836m 
  577.00000p    0.       999.9836m 
  578.00000p    0.       999.9836m 
  579.00000p    0.       999.9836m 
  580.00000p    0.       999.9836m 
  581.00000p    0.       999.9836m 
  582.00000p    0.       999.9836m 
  583.00000p    0.       999.9836m 
  584.00000p    0.       999.9836m 
  585.00000p    0.       999.9836m 
  586.00000p    0.       999.9836m 
  587.00000p    0.       999.9836m 
  588.00000p    0.       999.9836m 
  589.00000p    0.       999.9836m 
  590.00000p    0.       999.9836m 
  591.00000p    0.       999.9836m 
  592.00000p    0.       999.9836m 
  593.00000p    0.       999.9836m 
  594.00000p    0.       999.9836m 
  595.00000p    0.       999.9836m 
  596.00000p    0.       999.9836m 
  597.00000p    0.       999.9836m 
  598.00000p    0.       999.9836m 
  599.00000p    0.       999.9836m 
  600.00000p    0.       999.9836m 
  601.00000p    0.       999.9836m 
  602.00000p    0.       999.9836m 
  603.00000p    0.       999.9836m 
  604.00000p    0.       999.9836m 
  605.00000p    0.       999.9836m 
  606.00000p    0.       999.9836m 
  607.00000p    0.       999.9836m 
  608.00000p    0.       999.9836m 
  609.00000p    0.       999.9836m 
  610.00000p    0.       999.9836m 
  611.00000p    0.       999.9836m 
  612.00000p    0.       999.9836m 
  613.00000p    0.       999.9836m 
  614.00000p    0.       999.9836m 
  615.00000p    0.       999.9836m 
  616.00000p    0.       999.9836m 
  617.00000p    0.       999.9836m 
  618.00000p    0.       999.9836m 
  619.00000p    0.       999.9836m 
  620.00000p    0.       999.9836m 
  621.00000p    0.       999.9836m 
  622.00000p    0.       999.9836m 
  623.00000p    0.       999.9836m 
  624.00000p    0.       999.9836m 
  625.00000p    0.       999.9836m 
  626.00000p    0.       999.9836m 
  627.00000p    0.       999.9836m 
  628.00000p    0.       999.9836m 
  629.00000p    0.       999.9836m 
  630.00000p    0.       999.9836m 
  631.00000p    0.       999.9836m 
  632.00000p    0.       999.9836m 
  633.00000p    0.       999.9836m 
  634.00000p    0.       999.9836m 
  635.00000p    0.       999.9836m 
  636.00000p    0.       999.9836m 
  637.00000p    0.       999.9836m 
  638.00000p    0.       999.9836m 
  639.00000p    0.       999.9836m 
  640.00000p    0.       999.9836m 
  641.00000p    0.       999.9836m 
  642.00000p    0.       999.9836m 
  643.00000p    0.       999.9836m 
  644.00000p    0.       999.9836m 
  645.00000p    0.       999.9836m 
  646.00000p    0.       999.9836m 
  647.00000p    0.       999.9836m 
  648.00000p    0.       999.9836m 
  649.00000p    0.       999.9836m 
  650.00000p    0.       999.9836m 
  651.00000p    0.       999.9836m 
  652.00000p    0.       999.9836m 
  653.00000p    0.       999.9836m 
  654.00000p    0.       999.9836m 
  655.00000p    0.       999.9836m 
  656.00000p    0.       999.9836m 
  657.00000p    0.       999.9836m 
  658.00000p    0.       999.9836m 
  659.00000p    0.       999.9836m 
  660.00000p    0.       999.9836m 
  661.00000p    0.       999.9836m 
  662.00000p    0.       999.9836m 
  663.00000p    0.       999.9836m 
  664.00000p    0.       999.9836m 
  665.00000p    0.       999.9836m 
  666.00000p    0.       999.9836m 
  667.00000p    0.       999.9836m 
  668.00000p    0.       999.9836m 
  669.00000p    0.       999.9836m 
  670.00000p    0.       999.9836m 
  671.00000p    0.       999.9836m 
  672.00000p    0.       999.9836m 
  673.00000p    0.       999.9836m 
  674.00000p    0.       999.9836m 
  675.00000p    0.       999.9836m 
  676.00000p    0.       999.9836m 
  677.00000p    0.       999.9836m 
  678.00000p    0.       999.9836m 
  679.00000p    0.       999.9836m 
  680.00000p    0.       999.9836m 
  681.00000p    0.       999.9836m 
  682.00000p    0.       999.9836m 
  683.00000p    0.       999.9836m 
  684.00000p    0.       999.9836m 
  685.00000p    0.       999.9836m 
  686.00000p    0.       999.9836m 
  687.00000p    0.       999.9836m 
  688.00000p    0.       999.9836m 
  689.00000p    0.       999.9836m 
  690.00000p    0.       999.9836m 
  691.00000p    0.       999.9836m 
  692.00000p    0.       999.9836m 
  693.00000p    0.       999.9836m 
  694.00000p    0.       999.9836m 
  695.00000p    0.       999.9836m 
  696.00000p    0.       999.9836m 
  697.00000p    0.       999.9836m 
  698.00000p    0.       999.9836m 
  699.00000p    0.       999.9836m 
  700.00000p    0.       999.9836m 
  701.00000p    0.       999.9836m 
  702.00000p    0.       999.9836m 
  703.00000p    0.       999.9836m 
  704.00000p    0.       999.9836m 
  705.00000p    0.       999.9836m 
  706.00000p    0.       999.9836m 
  707.00000p    0.       999.9836m 
  708.00000p    0.       999.9836m 
  709.00000p    0.       999.9836m 
  710.00000p    0.       999.9836m 
  711.00000p    0.       999.9836m 
  712.00000p    0.       999.9836m 
  713.00000p    0.       999.9836m 
  714.00000p    0.       999.9836m 
  715.00000p    0.       999.9836m 
  716.00000p    0.       999.9836m 
  717.00000p    0.       999.9836m 
  718.00000p    0.       999.9836m 
  719.00000p    0.       999.9836m 
  720.00000p    0.       999.9836m 
  721.00000p    0.       999.9836m 
  722.00000p    0.       999.9836m 
  723.00000p    0.       999.9836m 
  724.00000p    0.       999.9836m 
  725.00000p    0.       999.9836m 
  726.00000p    0.       999.9836m 
  727.00000p    0.       999.9836m 
  728.00000p    0.       999.9836m 
  729.00000p    0.       999.9836m 
  730.00000p    0.       999.9836m 
  731.00000p    0.       999.9836m 
  732.00000p    0.       999.9836m 
  733.00000p    0.       999.9836m 
  734.00000p    0.       999.9836m 
  735.00000p    0.       999.9836m 
  736.00000p    0.       999.9836m 
  737.00000p    0.       999.9836m 
  738.00000p    0.       999.9836m 
  739.00000p    0.       999.9836m 
  740.00000p    0.       999.9836m 
  741.00000p    0.       999.9836m 
  742.00000p    0.       999.9836m 
  743.00000p    0.       999.9836m 
  744.00000p    0.       999.9836m 
  745.00000p    0.       999.9836m 
  746.00000p    0.       999.9836m 
  747.00000p    0.       999.9836m 
  748.00000p    0.       999.9836m 
  749.00000p    0.       999.9836m 
  750.00000p    0.       999.9836m 
  751.00000p    0.       999.9836m 
  752.00000p    0.       999.9836m 
  753.00000p    0.       999.9836m 
  754.00000p    0.       999.9836m 
  755.00000p    0.       999.9836m 
  756.00000p    0.       999.9836m 
  757.00000p    0.       999.9836m 
  758.00000p    0.       999.9836m 
  759.00000p    0.       999.9836m 
  760.00000p    0.       999.9836m 
  761.00000p    0.       999.9836m 
  762.00000p    0.       999.9836m 
  763.00000p    0.       999.9836m 
  764.00000p    0.       999.9836m 
  765.00000p    0.       999.9836m 
  766.00000p    0.       999.9836m 
  767.00000p    0.       999.9836m 
  768.00000p    0.       999.9836m 
  769.00000p    0.       999.9836m 
  770.00000p    0.       999.9836m 
  771.00000p    0.       999.9836m 
  772.00000p    0.       999.9836m 
  773.00000p    0.       999.9836m 
  774.00000p    0.       999.9836m 
  775.00000p    0.       999.9836m 
  776.00000p    0.       999.9836m 
  777.00000p    0.       999.9836m 
  778.00000p    0.       999.9836m 
  779.00000p    0.       999.9836m 
  780.00000p    0.       999.9836m 
  781.00000p    0.       999.9836m 
  782.00000p    0.       999.9836m 
  783.00000p    0.       999.9836m 
  784.00000p    0.       999.9836m 
  785.00000p    0.       999.9836m 
  786.00000p    0.       999.9836m 
  787.00000p    0.       999.9836m 
  788.00000p    0.       999.9836m 
  789.00000p    0.       999.9836m 
  790.00000p    0.       999.9836m 
  791.00000p    0.       999.9836m 
  792.00000p    0.       999.9836m 
  793.00000p    0.       999.9836m 
  794.00000p    0.       999.9836m 
  795.00000p    0.       999.9836m 
  796.00000p    0.       999.9836m 
  797.00000p    0.       999.9836m 
  798.00000p    0.       999.9836m 
  799.00000p    0.       999.9836m 
  800.00000p    0.       999.9836m 
  801.00000p    0.       999.9836m 
  802.00000p    0.       999.9836m 
  803.00000p    0.       999.9836m 
  804.00000p    0.       999.9836m 
  805.00000p    0.       999.9836m 
  806.00000p    0.       999.9836m 
  807.00000p    0.       999.9836m 
  808.00000p    0.       999.9836m 
  809.00000p    0.       999.9836m 
  810.00000p    0.       999.9836m 
  811.00000p    0.       999.9836m 
  812.00000p    0.       999.9836m 
  813.00000p    0.       999.9836m 
  814.00000p    0.       999.9836m 
  815.00000p    0.       999.9836m 
  816.00000p    0.       999.9836m 
  817.00000p    0.       999.9836m 
  818.00000p    0.       999.9836m 
  819.00000p    0.       999.9836m 
  820.00000p    0.       999.9836m 
  821.00000p    0.       999.9836m 
  822.00000p    0.       999.9836m 
  823.00000p    0.       999.9836m 
  824.00000p    0.       999.9836m 
  825.00000p    0.       999.9836m 
  826.00000p    0.       999.9836m 
  827.00000p    0.       999.9836m 
  828.00000p    0.       999.9836m 
  829.00000p    0.       999.9836m 
  830.00000p    0.       999.9836m 
  831.00000p    0.       999.9836m 
  832.00000p    0.       999.9836m 
  833.00000p    0.       999.9836m 
  834.00000p    0.       999.9836m 
  835.00000p    0.       999.9836m 
  836.00000p    0.       999.9836m 
  837.00000p    0.       999.9836m 
  838.00000p    0.       999.9836m 
  839.00000p    0.       999.9836m 
  840.00000p    0.       999.9836m 
  841.00000p    0.       999.9836m 
  842.00000p    0.       999.9836m 
  843.00000p    0.       999.9836m 
  844.00000p    0.       999.9836m 
  845.00000p    0.       999.9836m 
  846.00000p    0.       999.9836m 
  847.00000p    0.       999.9836m 
  848.00000p    0.       999.9836m 
  849.00000p    0.       999.9836m 
  850.00000p    0.       999.9836m 
  851.00000p    0.       999.9836m 
  852.00000p    0.       999.9836m 
  853.00000p    0.       999.9836m 
  854.00000p    0.       999.9836m 
  855.00000p    0.       999.9836m 
  856.00000p    0.       999.9836m 
  857.00000p    0.       999.9836m 
  858.00000p    0.       999.9836m 
  859.00000p    0.       999.9836m 
  860.00000p    0.       999.9836m 
  861.00000p    0.       999.9836m 
  862.00000p    0.       999.9836m 
  863.00000p    0.       999.9836m 
  864.00000p    0.       999.9836m 
  865.00000p    0.       999.9836m 
  866.00000p    0.       999.9836m 
  867.00000p    0.       999.9836m 
  868.00000p    0.       999.9836m 
  869.00000p    0.       999.9836m 
  870.00000p    0.       999.9836m 
  871.00000p    0.       999.9836m 
  872.00000p    0.       999.9836m 
  873.00000p    0.       999.9836m 
  874.00000p    0.       999.9836m 
  875.00000p    0.       999.9836m 
  876.00000p    0.       999.9836m 
  877.00000p    0.       999.9836m 
  878.00000p    0.       999.9836m 
  879.00000p    0.       999.9836m 
  880.00000p    0.       999.9836m 
  881.00000p    0.       999.9836m 
  882.00000p    0.       999.9836m 
  883.00000p    0.       999.9836m 
  884.00000p    0.       999.9836m 
  885.00000p    0.       999.9836m 
  886.00000p    0.       999.9836m 
  887.00000p    0.       999.9836m 
  888.00000p    0.       999.9836m 
  889.00000p    0.       999.9836m 
  890.00000p    0.       999.9836m 
  891.00000p    0.       999.9836m 
  892.00000p    0.       999.9836m 
  893.00000p    0.       999.9836m 
  894.00000p    0.       999.9836m 
  895.00000p    0.       999.9836m 
  896.00000p    0.       999.9836m 
  897.00000p    0.       999.9836m 
  898.00000p    0.       999.9836m 
  899.00000p    0.       999.9836m 
  900.00000p    0.       999.9836m 
  901.00000p    0.       999.9836m 
  902.00000p    0.       999.9836m 
  903.00000p    0.       999.9836m 
  904.00000p    0.       999.9836m 
  905.00000p    0.       999.9836m 
  906.00000p    0.       999.9836m 
  907.00000p    0.       999.9836m 
  908.00000p    0.       999.9836m 
  909.00000p    0.       999.9836m 
  910.00000p    0.       999.9836m 
  911.00000p    0.       999.9836m 
  912.00000p    0.       999.9836m 
  913.00000p    0.       999.9836m 
  914.00000p    0.       999.9836m 
  915.00000p    0.       999.9836m 
  916.00000p    0.       999.9836m 
  917.00000p    0.       999.9836m 
  918.00000p    0.       999.9836m 
  919.00000p    0.       999.9836m 
  920.00000p    0.       999.9836m 
  921.00000p    0.       999.9836m 
  922.00000p    0.       999.9836m 
  923.00000p    0.       999.9836m 
  924.00000p    0.       999.9836m 
  925.00000p    0.       999.9836m 
  926.00000p    0.       999.9836m 
  927.00000p    0.       999.9836m 
  928.00000p    0.       999.9836m 
  929.00000p    0.       999.9836m 
  930.00000p    0.       999.9836m 
  931.00000p    0.       999.9836m 
  932.00000p    0.       999.9836m 
  933.00000p    0.       999.9836m 
  934.00000p    0.       999.9836m 
  935.00000p    0.       999.9836m 
  936.00000p    0.       999.9836m 
  937.00000p    0.       999.9836m 
  938.00000p    0.       999.9836m 
  939.00000p    0.       999.9836m 
  940.00000p    0.       999.9836m 
  941.00000p    0.       999.9836m 
  942.00000p    0.       999.9836m 
  943.00000p    0.       999.9836m 
  944.00000p    0.       999.9836m 
  945.00000p    0.       999.9836m 
  946.00000p    0.       999.9836m 
  947.00000p    0.       999.9836m 
  948.00000p    0.       999.9836m 
  949.00000p    0.       999.9836m 
  950.00000p    0.       999.9836m 
  951.00000p    0.       999.9836m 
  952.00000p    0.       999.9836m 
  953.00000p    0.       999.9836m 
  954.00000p    0.       999.9836m 
  955.00000p    0.       999.9836m 
  956.00000p    0.       999.9836m 
  957.00000p    0.       999.9836m 
  958.00000p    0.       999.9836m 
  959.00000p    0.       999.9836m 
  960.00000p    0.       999.9836m 
  961.00000p    0.       999.9836m 
  962.00000p    0.       999.9836m 
  963.00000p    0.       999.9836m 
  964.00000p    0.       999.9836m 
  965.00000p    0.       999.9836m 
  966.00000p    0.       999.9836m 
  967.00000p    0.       999.9836m 
  968.00000p    0.       999.9836m 
  969.00000p    0.       999.9836m 
  970.00000p    0.       999.9836m 
  971.00000p    0.       999.9836m 
  972.00000p    0.       999.9836m 
  973.00000p    0.       999.9836m 
  974.00000p    0.       999.9836m 
  975.00000p    0.       999.9836m 
  976.00000p    0.       999.9836m 
  977.00000p    0.       999.9836m 
  978.00000p    0.       999.9836m 
  979.00000p    0.       999.9836m 
  980.00000p    0.       999.9836m 
  981.00000p    0.       999.9836m 
  982.00000p    0.       999.9836m 
  983.00000p    0.       999.9836m 
  984.00000p    0.       999.9836m 
  985.00000p    0.       999.9836m 
  986.00000p    0.       999.9836m 
  987.00000p    0.       999.9836m 
  988.00000p    0.       999.9836m 
  989.00000p    0.       999.9836m 
  990.00000p    0.       999.9836m 
  991.00000p    0.       999.9836m 
  992.00000p    0.       999.9836m 
  993.00000p    0.       999.9836m 
  994.00000p    0.       999.9836m 
  995.00000p    0.       999.9836m 
  996.00000p    0.       999.9836m 
  997.00000p    0.       999.9836m 
  998.00000p    0.       999.9836m 
  999.00000p    0.       999.9836m 
    1.00000n    0.       999.9836m 
    1.00100n    0.       999.9836m 
    1.00200n    0.       999.9836m 
    1.00300n    0.       999.9836m 
    1.00400n    0.       999.9836m 
    1.00500n    0.       999.9836m 
    1.00600n    0.       999.9836m 
    1.00700n    0.       999.9836m 
    1.00800n    0.       999.9836m 
    1.00900n    0.       999.9836m 
    1.01000n    0.       999.9836m 
    1.01100n    0.       999.9836m 
    1.01200n    0.       999.9836m 
    1.01300n    0.       999.9836m 
    1.01400n    0.       999.9836m 
    1.01500n    0.       999.9836m 
    1.01600n    0.       999.9836m 
    1.01700n    0.       999.9836m 
    1.01800n    0.       999.9836m 
    1.01900n    0.       999.9836m 
    1.02000n    0.       999.9836m 
    1.02100n    0.       999.9836m 
    1.02200n    0.       999.9836m 
    1.02300n    0.       999.9836m 
    1.02400n    0.       999.9836m 
    1.02500n    0.       999.9836m 
    1.02600n    0.       999.9836m 
    1.02700n    0.       999.9836m 
    1.02800n    0.       999.9836m 
    1.02900n    0.       999.9836m 
    1.03000n    0.       999.9836m 
    1.03100n    0.       999.9836m 
    1.03200n    0.       999.9836m 
    1.03300n    0.       999.9836m 
    1.03400n    0.       999.9836m 
    1.03500n    0.       999.9836m 
    1.03600n    0.       999.9836m 
    1.03700n    0.       999.9836m 
    1.03800n    0.       999.9836m 
    1.03900n    0.       999.9836m 
    1.04000n    0.       999.9836m 
    1.04100n    0.       999.9836m 
    1.04200n    0.       999.9836m 
    1.04300n    0.       999.9836m 
    1.04400n    0.       999.9836m 
    1.04500n    0.       999.9836m 
    1.04600n    0.       999.9836m 
    1.04700n    0.       999.9836m 
    1.04800n    0.       999.9836m 
    1.04900n    0.       999.9836m 
    1.05000n    0.       999.9836m 
    1.05100n    0.       999.9836m 
    1.05200n    0.       999.9836m 
    1.05300n    0.       999.9836m 
    1.05400n    0.       999.9836m 
    1.05500n    0.       999.9836m 
    1.05600n    0.       999.9836m 
    1.05700n    0.       999.9836m 
    1.05800n    0.       999.9836m 
    1.05900n    0.       999.9836m 
    1.06000n    0.       999.9836m 
    1.06100n    0.       999.9836m 
    1.06200n    0.       999.9836m 
    1.06300n    0.       999.9836m 
    1.06400n    0.       999.9836m 
    1.06500n    0.       999.9836m 
    1.06600n    0.       999.9836m 
    1.06700n    0.       999.9836m 
    1.06800n    0.       999.9836m 
    1.06900n    0.       999.9836m 
    1.07000n    0.       999.9836m 
    1.07100n    0.       999.9836m 
    1.07200n    0.       999.9836m 
    1.07300n    0.       999.9836m 
    1.07400n    0.       999.9836m 
    1.07500n    0.       999.9836m 
    1.07600n    0.       999.9836m 
    1.07700n    0.       999.9836m 
    1.07800n    0.       999.9836m 
    1.07900n    0.       999.9836m 
    1.08000n    0.       999.9836m 
    1.08100n    0.       999.9836m 
    1.08200n    0.       999.9836m 
    1.08300n    0.       999.9836m 
    1.08400n    0.       999.9836m 
    1.08500n    0.       999.9836m 
    1.08600n    0.       999.9836m 
    1.08700n    0.       999.9836m 
    1.08800n    0.       999.9836m 
    1.08900n    0.       999.9836m 
    1.09000n    0.       999.9836m 
    1.09100n    0.       999.9836m 
    1.09200n    0.       999.9836m 
    1.09300n    0.       999.9836m 
    1.09400n    0.       999.9836m 
    1.09500n    0.       999.9836m 
    1.09600n    0.       999.9836m 
    1.09700n    0.       999.9836m 
    1.09800n    0.       999.9836m 
    1.09900n    0.       999.9836m 
    1.10000n    0.       999.9836m 
    1.10100n    0.       999.9836m 
    1.10200n    0.       999.9836m 
    1.10300n    0.       999.9836m 
    1.10400n    0.       999.9836m 
    1.10500n    0.       999.9836m 
    1.10600n    0.       999.9836m 
    1.10700n    0.       999.9836m 
    1.10800n    0.       999.9836m 
    1.10900n    0.       999.9836m 
    1.11000n    0.       999.9836m 
    1.11100n    0.       999.9836m 
    1.11200n    0.       999.9836m 
    1.11300n    0.       999.9836m 
    1.11400n    0.       999.9836m 
    1.11500n    0.       999.9836m 
    1.11600n    0.       999.9836m 
    1.11700n    0.       999.9836m 
    1.11800n    0.       999.9836m 
    1.11900n    0.       999.9836m 
    1.12000n    0.       999.9836m 
    1.12100n    0.       999.9836m 
    1.12200n    0.       999.9836m 
    1.12300n    0.       999.9836m 
    1.12400n    0.       999.9836m 
    1.12500n    0.       999.9836m 
    1.12600n    0.       999.9836m 
    1.12700n    0.       999.9836m 
    1.12800n    0.       999.9836m 
    1.12900n    0.       999.9836m 
    1.13000n    0.       999.9836m 
    1.13100n    0.       999.9836m 
    1.13200n    0.       999.9836m 
    1.13300n    0.       999.9836m 
    1.13400n    0.       999.9836m 
    1.13500n    0.       999.9836m 
    1.13600n    0.       999.9836m 
    1.13700n    0.       999.9836m 
    1.13800n    0.       999.9836m 
    1.13900n    0.       999.9836m 
    1.14000n    0.       999.9836m 
    1.14100n    0.       999.9836m 
    1.14200n    0.       999.9836m 
    1.14300n    0.       999.9836m 
    1.14400n    0.       999.9836m 
    1.14500n    0.       999.9836m 
    1.14600n    0.       999.9836m 
    1.14700n    0.       999.9836m 
    1.14800n    0.       999.9836m 
    1.14900n    0.       999.9836m 
    1.15000n    0.       999.9836m 
    1.15100n    0.       999.9836m 
    1.15200n    0.       999.9836m 
    1.15300n    0.       999.9836m 
    1.15400n    0.       999.9836m 
    1.15500n    0.       999.9836m 
    1.15600n    0.       999.9836m 
    1.15700n    0.       999.9836m 
    1.15800n    0.       999.9836m 
    1.15900n    0.       999.9836m 
    1.16000n    0.       999.9836m 
    1.16100n    0.       999.9836m 
    1.16200n    0.       999.9836m 
    1.16300n    0.       999.9836m 
    1.16400n    0.       999.9836m 
    1.16500n    0.       999.9836m 
    1.16600n    0.       999.9836m 
    1.16700n    0.       999.9836m 
    1.16800n    0.       999.9836m 
    1.16900n    0.       999.9836m 
    1.17000n    0.       999.9836m 
    1.17100n    0.       999.9836m 
    1.17200n    0.       999.9836m 
    1.17300n    0.       999.9836m 
    1.17400n    0.       999.9836m 
    1.17500n    0.       999.9836m 
    1.17600n    0.       999.9836m 
    1.17700n    0.       999.9836m 
    1.17800n    0.       999.9836m 
    1.17900n    0.       999.9836m 
    1.18000n    0.       999.9836m 
    1.18100n    0.       999.9836m 
    1.18200n    0.       999.9836m 
    1.18300n    0.       999.9836m 
    1.18400n    0.       999.9836m 
    1.18500n    0.       999.9836m 
    1.18600n    0.       999.9836m 
    1.18700n    0.       999.9836m 
    1.18800n    0.       999.9836m 
    1.18900n    0.       999.9836m 
    1.19000n    0.       999.9836m 
    1.19100n    0.       999.9836m 
    1.19200n    0.       999.9836m 
    1.19300n    0.       999.9836m 
    1.19400n    0.       999.9836m 
    1.19500n    0.       999.9836m 
    1.19600n    0.       999.9836m 
    1.19700n    0.       999.9836m 
    1.19800n    0.       999.9836m 
    1.19900n    0.       999.9836m 
    1.20000n    0.       999.9836m 
    1.20100n    0.       999.9836m 
    1.20200n    0.       999.9836m 
    1.20300n    0.       999.9836m 
    1.20400n    0.       999.9836m 
    1.20500n    0.       999.9836m 
    1.20600n    0.       999.9836m 
    1.20700n    0.       999.9836m 
    1.20800n    0.       999.9836m 
    1.20900n    0.       999.9836m 
    1.21000n    0.       999.9836m 
    1.21100n    0.       999.9836m 
    1.21200n    0.       999.9836m 
    1.21300n    0.       999.9836m 
    1.21400n    0.       999.9836m 
    1.21500n    0.       999.9836m 
    1.21600n    0.       999.9836m 
    1.21700n    0.       999.9836m 
    1.21800n    0.       999.9836m 
    1.21900n    0.       999.9836m 
    1.22000n    0.       999.9836m 
    1.22100n    0.       999.9836m 
    1.22200n    0.       999.9836m 
    1.22300n    0.       999.9836m 
    1.22400n    0.       999.9836m 
    1.22500n    0.       999.9836m 
    1.22600n    0.       999.9836m 
    1.22700n    0.       999.9836m 
    1.22800n    0.       999.9836m 
    1.22900n    0.       999.9836m 
    1.23000n    0.       999.9836m 
    1.23100n    0.       999.9836m 
    1.23200n    0.       999.9836m 
    1.23300n    0.       999.9836m 
    1.23400n    0.       999.9836m 
    1.23500n    0.       999.9836m 
    1.23600n    0.       999.9836m 
    1.23700n    0.       999.9836m 
    1.23800n    0.       999.9836m 
    1.23900n    0.       999.9836m 
    1.24000n    0.       999.9836m 
    1.24100n    0.       999.9836m 
    1.24200n    0.       999.9836m 
    1.24300n    0.       999.9836m 
    1.24400n    0.       999.9836m 
    1.24500n    0.       999.9836m 
    1.24600n    0.       999.9836m 
    1.24700n    0.       999.9836m 
    1.24800n    0.       999.9836m 
    1.24900n    0.       999.9836m 
    1.25000n    0.       999.9836m 
    1.25100n    0.       999.9836m 
    1.25200n    0.       999.9836m 
    1.25300n    0.       999.9836m 
    1.25400n    0.       999.9836m 
    1.25500n    0.       999.9836m 
    1.25600n    0.       999.9836m 
    1.25700n    0.       999.9836m 
    1.25800n    0.       999.9836m 
    1.25900n    0.       999.9836m 
    1.26000n    0.       999.9836m 
    1.26100n    0.       999.9836m 
    1.26200n    0.       999.9836m 
    1.26300n    0.       999.9836m 
    1.26400n    0.       999.9836m 
    1.26500n    0.       999.9836m 
    1.26600n    0.       999.9836m 
    1.26700n    0.       999.9836m 
    1.26800n    0.       999.9836m 
    1.26900n    0.       999.9836m 
    1.27000n    0.       999.9836m 
    1.27100n    0.       999.9836m 
    1.27200n    0.       999.9836m 
    1.27300n    0.       999.9836m 
    1.27400n    0.       999.9836m 
    1.27500n    0.       999.9836m 
    1.27600n    0.       999.9836m 
    1.27700n    0.       999.9836m 
    1.27800n    0.       999.9836m 
    1.27900n    0.       999.9836m 
    1.28000n    0.       999.9836m 
    1.28100n    0.       999.9836m 
    1.28200n    0.       999.9836m 
    1.28300n    0.       999.9836m 
    1.28400n    0.       999.9836m 
    1.28500n    0.       999.9836m 
    1.28600n    0.       999.9836m 
    1.28700n    0.       999.9836m 
    1.28800n    0.       999.9836m 
    1.28900n    0.       999.9836m 
    1.29000n    0.       999.9836m 
    1.29100n    0.       999.9836m 
    1.29200n    0.       999.9836m 
    1.29300n    0.       999.9836m 
    1.29400n    0.       999.9836m 
    1.29500n    0.       999.9836m 
    1.29600n    0.       999.9836m 
    1.29700n    0.       999.9836m 
    1.29800n    0.       999.9836m 
    1.29900n    0.       999.9836m 
    1.30000n    0.       999.9836m 
    1.30100n    0.       999.9836m 
    1.30200n    0.       999.9836m 
    1.30300n    0.       999.9836m 
    1.30400n    0.       999.9836m 
    1.30500n    0.       999.9836m 
    1.30600n    0.       999.9836m 
    1.30700n    0.       999.9836m 
    1.30800n    0.       999.9836m 
    1.30900n    0.       999.9836m 
    1.31000n    0.       999.9836m 
    1.31100n    0.       999.9836m 
    1.31200n    0.       999.9836m 
    1.31300n    0.       999.9836m 
    1.31400n    0.       999.9836m 
    1.31500n    0.       999.9836m 
    1.31600n    0.       999.9836m 
    1.31700n    0.       999.9836m 
    1.31800n    0.       999.9836m 
    1.31900n    0.       999.9836m 
    1.32000n    0.       999.9836m 
    1.32100n    0.       999.9836m 
    1.32200n    0.       999.9836m 
    1.32300n    0.       999.9836m 
    1.32400n    0.       999.9836m 
    1.32500n    0.       999.9836m 
    1.32600n    0.       999.9836m 
    1.32700n    0.       999.9836m 
    1.32800n    0.       999.9836m 
    1.32900n    0.       999.9836m 
    1.33000n    0.       999.9836m 
    1.33100n    0.       999.9836m 
    1.33200n    0.       999.9836m 
    1.33300n    0.       999.9836m 
    1.33400n    0.       999.9836m 
    1.33500n    0.       999.9836m 
    1.33600n    0.       999.9836m 
    1.33700n    0.       999.9836m 
    1.33800n    0.       999.9836m 
    1.33900n    0.       999.9836m 
    1.34000n    0.       999.9836m 
    1.34100n    0.       999.9836m 
    1.34200n    0.       999.9836m 
    1.34300n    0.       999.9836m 
    1.34400n    0.       999.9836m 
    1.34500n    0.       999.9836m 
    1.34600n    0.       999.9836m 
    1.34700n    0.       999.9836m 
    1.34800n    0.       999.9836m 
    1.34900n    0.       999.9836m 
    1.35000n    0.       999.9836m 
    1.35100n    0.       999.9836m 
    1.35200n    0.       999.9836m 
    1.35300n    0.       999.9836m 
    1.35400n    0.       999.9836m 
    1.35500n    0.       999.9836m 
    1.35600n    0.       999.9836m 
    1.35700n    0.       999.9836m 
    1.35800n    0.       999.9836m 
    1.35900n    0.       999.9836m 
    1.36000n    0.       999.9836m 
    1.36100n    0.       999.9836m 
    1.36200n    0.       999.9836m 
    1.36300n    0.       999.9836m 
    1.36400n    0.       999.9836m 
    1.36500n    0.       999.9836m 
    1.36600n    0.       999.9836m 
    1.36700n    0.       999.9836m 
    1.36800n    0.       999.9836m 
    1.36900n    0.       999.9836m 
    1.37000n    0.       999.9836m 
    1.37100n    0.       999.9836m 
    1.37200n    0.       999.9836m 
    1.37300n    0.       999.9836m 
    1.37400n    0.       999.9836m 
    1.37500n    0.       999.9836m 
    1.37600n    0.       999.9836m 
    1.37700n    0.       999.9836m 
    1.37800n    0.       999.9836m 
    1.37900n    0.       999.9836m 
    1.38000n    0.       999.9836m 
    1.38100n    0.       999.9836m 
    1.38200n    0.       999.9836m 
    1.38300n    0.       999.9836m 
    1.38400n    0.       999.9836m 
    1.38500n    0.       999.9836m 
    1.38600n    0.       999.9836m 
    1.38700n    0.       999.9836m 
    1.38800n    0.       999.9836m 
    1.38900n    0.       999.9836m 
    1.39000n    0.       999.9836m 
    1.39100n    0.       999.9836m 
    1.39200n    0.       999.9836m 
    1.39300n    0.       999.9836m 
    1.39400n    0.       999.9836m 
    1.39500n    0.       999.9836m 
    1.39600n    0.       999.9836m 
    1.39700n    0.       999.9836m 
    1.39800n    0.       999.9836m 
    1.39900n    0.       999.9836m 
    1.40000n    0.       999.9836m 
    1.40100n    0.       999.9836m 
    1.40200n    0.       999.9836m 
    1.40300n    0.       999.9836m 
    1.40400n    0.       999.9836m 
    1.40500n    0.       999.9836m 
    1.40600n    0.       999.9836m 
    1.40700n    0.       999.9836m 
    1.40800n    0.       999.9836m 
    1.40900n    0.       999.9836m 
    1.41000n    0.       999.9836m 
    1.41100n    0.       999.9836m 
    1.41200n    0.       999.9836m 
    1.41300n    0.       999.9836m 
    1.41400n    0.       999.9836m 
    1.41500n    0.       999.9836m 
    1.41600n    0.       999.9836m 
    1.41700n    0.       999.9836m 
    1.41800n    0.       999.9836m 
    1.41900n    0.       999.9836m 
    1.42000n    0.       999.9836m 
    1.42100n    0.       999.9836m 
    1.42200n    0.       999.9836m 
    1.42300n    0.       999.9836m 
    1.42400n    0.       999.9836m 
    1.42500n    0.       999.9836m 
    1.42600n    0.       999.9836m 
    1.42700n    0.       999.9836m 
    1.42800n    0.       999.9836m 
    1.42900n    0.       999.9836m 
    1.43000n    0.       999.9836m 
    1.43100n    0.       999.9836m 
    1.43200n    0.       999.9836m 
    1.43300n    0.       999.9836m 
    1.43400n    0.       999.9836m 
    1.43500n    0.       999.9836m 
    1.43600n    0.       999.9836m 
    1.43700n    0.       999.9836m 
    1.43800n    0.       999.9836m 
    1.43900n    0.       999.9836m 
    1.44000n    0.       999.9836m 
    1.44100n    0.       999.9836m 
    1.44200n    0.       999.9836m 
    1.44300n    0.       999.9836m 
    1.44400n    0.       999.9836m 
    1.44500n    0.       999.9836m 
    1.44600n    0.       999.9836m 
    1.44700n    0.       999.9836m 
    1.44800n    0.       999.9836m 
    1.44900n    0.       999.9836m 
    1.45000n    0.       999.9836m 
    1.45100n    0.       999.9836m 
    1.45200n    0.       999.9836m 
    1.45300n    0.       999.9836m 
    1.45400n    0.       999.9836m 
    1.45500n    0.       999.9836m 
    1.45600n    0.       999.9836m 
    1.45700n    0.       999.9836m 
    1.45800n    0.       999.9836m 
    1.45900n    0.       999.9836m 
    1.46000n    0.       999.9836m 
    1.46100n    0.       999.9836m 
    1.46200n    0.       999.9836m 
    1.46300n    0.       999.9836m 
    1.46400n    0.       999.9836m 
    1.46500n    0.       999.9836m 
    1.46600n    0.       999.9836m 
    1.46700n    0.       999.9836m 
    1.46800n    0.       999.9836m 
    1.46900n    0.       999.9836m 
    1.47000n    0.       999.9836m 
    1.47100n    0.       999.9836m 
    1.47200n    0.       999.9836m 
    1.47300n    0.       999.9836m 
    1.47400n    0.       999.9836m 
    1.47500n    0.       999.9836m 
    1.47600n    0.       999.9836m 
    1.47700n    0.       999.9836m 
    1.47800n    0.       999.9836m 
    1.47900n    0.       999.9836m 
    1.48000n    0.       999.9836m 
    1.48100n    0.       999.9836m 
    1.48200n    0.       999.9836m 
    1.48300n    0.       999.9836m 
    1.48400n    0.       999.9836m 
    1.48500n    0.       999.9836m 
    1.48600n    0.       999.9836m 
    1.48700n    0.       999.9836m 
    1.48800n    0.       999.9836m 
    1.48900n    0.       999.9836m 
    1.49000n    0.       999.9836m 
    1.49100n    0.       999.9836m 
    1.49200n    0.       999.9836m 
    1.49300n    0.       999.9836m 
    1.49400n    0.       999.9836m 
    1.49500n    0.       999.9836m 
    1.49600n    0.       999.9836m 
    1.49700n    0.       999.9836m 
    1.49800n    0.       999.9836m 
    1.49900n    0.       999.9836m 
    1.50000n    0.       999.9836m 
    1.50100n    0.       999.9836m 
    1.50200n    0.       999.9836m 
    1.50300n    0.       999.9836m 
    1.50400n    0.       999.9836m 
    1.50500n    0.       999.9836m 
    1.50600n    0.       999.9836m 
    1.50700n    0.       999.9836m 
    1.50800n    0.       999.9836m 
    1.50900n    0.       999.9836m 
    1.51000n    0.       999.9836m 
    1.51100n    0.       999.9836m 
    1.51200n    0.       999.9836m 
    1.51300n    0.       999.9836m 
    1.51400n    0.       999.9836m 
    1.51500n    0.       999.9836m 
    1.51600n    0.       999.9836m 
    1.51700n    0.       999.9836m 
    1.51800n    0.       999.9836m 
    1.51900n    0.       999.9836m 
    1.52000n    0.       999.9836m 
    1.52100n    0.       999.9836m 
    1.52200n    0.       999.9836m 
    1.52300n    0.       999.9836m 
    1.52400n    0.       999.9836m 
    1.52500n    0.       999.9836m 
    1.52600n    0.       999.9836m 
    1.52700n    0.       999.9836m 
    1.52800n    0.       999.9836m 
    1.52900n    0.       999.9836m 
    1.53000n    0.       999.9836m 
    1.53100n    0.       999.9836m 
    1.53200n    0.       999.9836m 
    1.53300n    0.       999.9836m 
    1.53400n    0.       999.9836m 
    1.53500n    0.       999.9836m 
    1.53600n    0.       999.9836m 
    1.53700n    0.       999.9836m 
    1.53800n    0.       999.9836m 
    1.53900n    0.       999.9836m 
    1.54000n    0.       999.9836m 
    1.54100n    0.       999.9836m 
    1.54200n    0.       999.9836m 
    1.54300n    0.       999.9836m 
    1.54400n    0.       999.9836m 
    1.54500n    0.       999.9836m 
    1.54600n    0.       999.9836m 
    1.54700n    0.       999.9836m 
    1.54800n    0.       999.9836m 
    1.54900n    0.       999.9836m 
    1.55000n    0.       999.9836m 
    1.55100n    0.       999.9836m 
    1.55200n    0.       999.9836m 
    1.55300n    0.       999.9836m 
    1.55400n    0.       999.9836m 
    1.55500n    0.       999.9836m 
    1.55600n    0.       999.9836m 
    1.55700n    0.       999.9836m 
    1.55800n    0.       999.9836m 
    1.55900n    0.       999.9836m 
    1.56000n    0.       999.9836m 
    1.56100n    0.       999.9836m 
    1.56200n    0.       999.9836m 
    1.56300n    0.       999.9836m 
    1.56400n    0.       999.9836m 
    1.56500n    0.       999.9836m 
    1.56600n    0.       999.9836m 
    1.56700n    0.       999.9836m 
    1.56800n    0.       999.9836m 
    1.56900n    0.       999.9836m 
    1.57000n    0.       999.9836m 
    1.57100n    0.       999.9836m 
    1.57200n    0.       999.9836m 
    1.57300n    0.       999.9836m 
    1.57400n    0.       999.9836m 
    1.57500n    0.       999.9836m 
    1.57600n    0.       999.9836m 
    1.57700n    0.       999.9836m 
    1.57800n    0.       999.9836m 
    1.57900n    0.       999.9836m 
    1.58000n    0.       999.9836m 
    1.58100n    0.       999.9836m 
    1.58200n    0.       999.9836m 
    1.58300n    0.       999.9836m 
    1.58400n    0.       999.9836m 
    1.58500n    0.       999.9836m 
    1.58600n    0.       999.9836m 
    1.58700n    0.       999.9836m 
    1.58800n    0.       999.9836m 
    1.58900n    0.       999.9836m 
    1.59000n    0.       999.9836m 
    1.59100n    0.       999.9836m 
    1.59200n    0.       999.9836m 
    1.59300n    0.       999.9836m 
    1.59400n    0.       999.9836m 
    1.59500n    0.       999.9836m 
    1.59600n    0.       999.9836m 
    1.59700n    0.       999.9836m 
    1.59800n    0.       999.9836m 
    1.59900n    0.       999.9836m 
    1.60000n    0.       999.9836m 
    1.60100n    0.       999.9836m 
    1.60200n    0.       999.9836m 
    1.60300n    0.       999.9836m 
    1.60400n    0.       999.9836m 
    1.60500n    0.       999.9836m 
    1.60600n    0.       999.9836m 
    1.60700n    0.       999.9836m 
    1.60800n    0.       999.9836m 
    1.60900n    0.       999.9836m 
    1.61000n    0.       999.9836m 
    1.61100n    0.       999.9836m 
    1.61200n    0.       999.9836m 
    1.61300n    0.       999.9836m 
    1.61400n    0.       999.9836m 
    1.61500n    0.       999.9836m 
    1.61600n    0.       999.9836m 
    1.61700n    0.       999.9836m 
    1.61800n    0.       999.9836m 
    1.61900n    0.       999.9836m 
    1.62000n    0.       999.9836m 
    1.62100n    0.       999.9836m 
    1.62200n    0.       999.9836m 
    1.62300n    0.       999.9836m 
    1.62400n    0.       999.9836m 
    1.62500n    0.       999.9836m 
    1.62600n    0.       999.9836m 
    1.62700n    0.       999.9836m 
    1.62800n    0.       999.9836m 
    1.62900n    0.       999.9836m 
    1.63000n    0.       999.9836m 
    1.63100n    0.       999.9836m 
    1.63200n    0.       999.9836m 
    1.63300n    0.       999.9836m 
    1.63400n    0.       999.9836m 
    1.63500n    0.       999.9836m 
    1.63600n    0.       999.9836m 
    1.63700n    0.       999.9836m 
    1.63800n    0.       999.9836m 
    1.63900n    0.       999.9836m 
    1.64000n    0.       999.9836m 
    1.64100n    0.       999.9836m 
    1.64200n    0.       999.9836m 
    1.64300n    0.       999.9836m 
    1.64400n    0.       999.9836m 
    1.64500n    0.       999.9836m 
    1.64600n    0.       999.9836m 
    1.64700n    0.       999.9836m 
    1.64800n    0.       999.9836m 
    1.64900n    0.       999.9836m 
    1.65000n    0.       999.9836m 
    1.65100n    0.       999.9836m 
    1.65200n    0.       999.9836m 
    1.65300n    0.       999.9836m 
    1.65400n    0.       999.9836m 
    1.65500n    0.       999.9836m 
    1.65600n    0.       999.9836m 
    1.65700n    0.       999.9836m 
    1.65800n    0.       999.9836m 
    1.65900n    0.       999.9836m 
    1.66000n    0.       999.9836m 
    1.66100n    0.       999.9836m 
    1.66200n    0.       999.9836m 
    1.66300n    0.       999.9836m 
    1.66400n    0.       999.9836m 
    1.66500n    0.       999.9836m 
    1.66600n    0.       999.9836m 
    1.66700n    0.       999.9836m 
    1.66800n    0.       999.9836m 
    1.66900n    0.       999.9836m 
    1.67000n    0.       999.9836m 
    1.67100n    0.       999.9836m 
    1.67200n    0.       999.9836m 
    1.67300n    0.       999.9836m 
    1.67400n    0.       999.9836m 
    1.67500n    0.       999.9836m 
    1.67600n    0.       999.9836m 
    1.67700n    0.       999.9836m 
    1.67800n    0.       999.9836m 
    1.67900n    0.       999.9836m 
    1.68000n    0.       999.9836m 
    1.68100n    0.       999.9836m 
    1.68200n    0.       999.9836m 
    1.68300n    0.       999.9836m 
    1.68400n    0.       999.9836m 
    1.68500n    0.       999.9836m 
    1.68600n    0.       999.9836m 
    1.68700n    0.       999.9836m 
    1.68800n    0.       999.9836m 
    1.68900n    0.       999.9836m 
    1.69000n    0.       999.9836m 
    1.69100n    0.       999.9836m 
    1.69200n    0.       999.9836m 
    1.69300n    0.       999.9836m 
    1.69400n    0.       999.9836m 
    1.69500n    0.       999.9836m 
    1.69600n    0.       999.9836m 
    1.69700n    0.       999.9836m 
    1.69800n    0.       999.9836m 
    1.69900n    0.       999.9836m 
    1.70000n    0.       999.9836m 
    1.70100n    0.       999.9836m 
    1.70200n    0.       999.9836m 
    1.70300n    0.       999.9836m 
    1.70400n    0.       999.9836m 
    1.70500n    0.       999.9836m 
    1.70600n    0.       999.9836m 
    1.70700n    0.       999.9836m 
    1.70800n    0.       999.9836m 
    1.70900n    0.       999.9836m 
    1.71000n    0.       999.9836m 
    1.71100n    0.       999.9836m 
    1.71200n    0.       999.9836m 
    1.71300n    0.       999.9836m 
    1.71400n    0.       999.9836m 
    1.71500n    0.       999.9836m 
    1.71600n    0.       999.9836m 
    1.71700n    0.       999.9836m 
    1.71800n    0.       999.9836m 
    1.71900n    0.       999.9836m 
    1.72000n    0.       999.9836m 
    1.72100n    0.       999.9836m 
    1.72200n    0.       999.9836m 
    1.72300n    0.       999.9836m 
    1.72400n    0.       999.9836m 
    1.72500n    0.       999.9836m 
    1.72600n    0.       999.9836m 
    1.72700n    0.       999.9836m 
    1.72800n    0.       999.9836m 
    1.72900n    0.       999.9836m 
    1.73000n    0.       999.9836m 
    1.73100n    0.       999.9836m 
    1.73200n    0.       999.9836m 
    1.73300n    0.       999.9836m 
    1.73400n    0.       999.9836m 
    1.73500n    0.       999.9836m 
    1.73600n    0.       999.9836m 
    1.73700n    0.       999.9836m 
    1.73800n    0.       999.9836m 
    1.73900n    0.       999.9836m 
    1.74000n    0.       999.9836m 
    1.74100n    0.       999.9836m 
    1.74200n    0.       999.9836m 
    1.74300n    0.       999.9836m 
    1.74400n    0.       999.9836m 
    1.74500n    0.       999.9836m 
    1.74600n    0.       999.9836m 
    1.74700n    0.       999.9836m 
    1.74800n    0.       999.9836m 
    1.74900n    0.       999.9836m 
    1.75000n    0.       999.9836m 
    1.75100n    0.       999.9836m 
    1.75200n    0.       999.9836m 
    1.75300n    0.       999.9836m 
    1.75400n    0.       999.9836m 
    1.75500n    0.       999.9836m 
    1.75600n    0.       999.9836m 
    1.75700n    0.       999.9836m 
    1.75800n    0.       999.9836m 
    1.75900n    0.       999.9836m 
    1.76000n    0.       999.9836m 
    1.76100n    0.       999.9836m 
    1.76200n    0.       999.9836m 
    1.76300n    0.       999.9836m 
    1.76400n    0.       999.9836m 
    1.76500n    0.       999.9836m 
    1.76600n    0.       999.9836m 
    1.76700n    0.       999.9836m 
    1.76800n    0.       999.9836m 
    1.76900n    0.       999.9836m 
    1.77000n    0.       999.9836m 
    1.77100n    0.       999.9836m 
    1.77200n    0.       999.9836m 
    1.77300n    0.       999.9836m 
    1.77400n    0.       999.9836m 
    1.77500n    0.       999.9836m 
    1.77600n    0.       999.9836m 
    1.77700n    0.       999.9836m 
    1.77800n    0.       999.9836m 
    1.77900n    0.       999.9836m 
    1.78000n    0.       999.9836m 
    1.78100n    0.       999.9836m 
    1.78200n    0.       999.9836m 
    1.78300n    0.       999.9836m 
    1.78400n    0.       999.9836m 
    1.78500n    0.       999.9836m 
    1.78600n    0.       999.9836m 
    1.78700n    0.       999.9836m 
    1.78800n    0.       999.9836m 
    1.78900n    0.       999.9836m 
    1.79000n    0.       999.9836m 
    1.79100n    0.       999.9836m 
    1.79200n    0.       999.9836m 
    1.79300n    0.       999.9836m 
    1.79400n    0.       999.9836m 
    1.79500n    0.       999.9836m 
    1.79600n    0.       999.9836m 
    1.79700n    0.       999.9836m 
    1.79800n    0.       999.9836m 
    1.79900n    0.       999.9836m 
    1.80000n    0.       999.9836m 
    1.80100n    0.       999.9836m 
    1.80200n    0.       999.9836m 
    1.80300n    0.       999.9836m 
    1.80400n    0.       999.9836m 
    1.80500n    0.       999.9836m 
    1.80600n    0.       999.9836m 
    1.80700n    0.       999.9836m 
    1.80800n    0.       999.9836m 
    1.80900n    0.       999.9836m 
    1.81000n    0.       999.9836m 
    1.81100n    0.       999.9836m 
    1.81200n    0.       999.9836m 
    1.81300n    0.       999.9836m 
    1.81400n    0.       999.9836m 
    1.81500n    0.       999.9836m 
    1.81600n    0.       999.9836m 
    1.81700n    0.       999.9836m 
    1.81800n    0.       999.9836m 
    1.81900n    0.       999.9836m 
    1.82000n    0.       999.9836m 
    1.82100n    0.       999.9836m 
    1.82200n    0.       999.9836m 
    1.82300n    0.       999.9836m 
    1.82400n    0.       999.9836m 
    1.82500n    0.       999.9836m 
    1.82600n    0.       999.9836m 
    1.82700n    0.       999.9836m 
    1.82800n    0.       999.9836m 
    1.82900n    0.       999.9836m 
    1.83000n    0.       999.9836m 
    1.83100n    0.       999.9836m 
    1.83200n    0.       999.9836m 
    1.83300n    0.       999.9836m 
    1.83400n    0.       999.9836m 
    1.83500n    0.       999.9836m 
    1.83600n    0.       999.9836m 
    1.83700n    0.       999.9836m 
    1.83800n    0.       999.9836m 
    1.83900n    0.       999.9836m 
    1.84000n    0.       999.9836m 
    1.84100n    0.       999.9836m 
    1.84200n    0.       999.9836m 
    1.84300n    0.       999.9836m 
    1.84400n    0.       999.9836m 
    1.84500n    0.       999.9836m 
    1.84600n    0.       999.9836m 
    1.84700n    0.       999.9836m 
    1.84800n    0.       999.9836m 
    1.84900n    0.       999.9836m 
    1.85000n    0.       999.9836m 
    1.85100n    0.       999.9836m 
    1.85200n    0.       999.9836m 
    1.85300n    0.       999.9836m 
    1.85400n    0.       999.9836m 
    1.85500n    0.       999.9836m 
    1.85600n    0.       999.9836m 
    1.85700n    0.       999.9836m 
    1.85800n    0.       999.9836m 
    1.85900n    0.       999.9836m 
    1.86000n    0.       999.9836m 
    1.86100n    0.       999.9836m 
    1.86200n    0.       999.9836m 
    1.86300n    0.       999.9836m 
    1.86400n    0.       999.9836m 
    1.86500n    0.       999.9836m 
    1.86600n    0.       999.9836m 
    1.86700n    0.       999.9836m 
    1.86800n    0.       999.9836m 
    1.86900n    0.       999.9836m 
    1.87000n    0.       999.9836m 
    1.87100n    0.       999.9836m 
    1.87200n    0.       999.9836m 
    1.87300n    0.       999.9836m 
    1.87400n    0.       999.9836m 
    1.87500n    0.       999.9836m 
    1.87600n    0.       999.9836m 
    1.87700n    0.       999.9836m 
    1.87800n    0.       999.9836m 
    1.87900n    0.       999.9836m 
    1.88000n    0.       999.9836m 
    1.88100n    0.       999.9836m 
    1.88200n    0.       999.9836m 
    1.88300n    0.       999.9836m 
    1.88400n    0.       999.9836m 
    1.88500n    0.       999.9836m 
    1.88600n    0.       999.9836m 
    1.88700n    0.       999.9836m 
    1.88800n    0.       999.9836m 
    1.88900n    0.       999.9836m 
    1.89000n    0.       999.9836m 
    1.89100n    0.       999.9836m 
    1.89200n    0.       999.9836m 
    1.89300n    0.       999.9836m 
    1.89400n    0.       999.9836m 
    1.89500n    0.       999.9836m 
    1.89600n    0.       999.9836m 
    1.89700n    0.       999.9836m 
    1.89800n    0.       999.9836m 
    1.89900n    0.       999.9836m 
    1.90000n    0.       999.9836m 
    1.90100n    0.       999.9836m 
    1.90200n    0.       999.9836m 
    1.90300n    0.       999.9836m 
    1.90400n    0.       999.9836m 
    1.90500n    0.       999.9836m 
    1.90600n    0.       999.9836m 
    1.90700n    0.       999.9836m 
    1.90800n    0.       999.9836m 
    1.90900n    0.       999.9836m 
    1.91000n    0.       999.9836m 
    1.91100n    0.       999.9836m 
    1.91200n    0.       999.9836m 
    1.91300n    0.       999.9836m 
    1.91400n    0.       999.9836m 
    1.91500n    0.       999.9836m 
    1.91600n    0.       999.9836m 
    1.91700n    0.       999.9836m 
    1.91800n    0.       999.9836m 
    1.91900n    0.       999.9836m 
    1.92000n    0.       999.9836m 
    1.92100n    0.       999.9836m 
    1.92200n    0.       999.9836m 
    1.92300n    0.       999.9836m 
    1.92400n    0.       999.9836m 
    1.92500n    0.       999.9836m 
    1.92600n    0.       999.9836m 
    1.92700n    0.       999.9836m 
    1.92800n    0.       999.9836m 
    1.92900n    0.       999.9836m 
    1.93000n    0.       999.9836m 
    1.93100n    0.       999.9836m 
    1.93200n    0.       999.9836m 
    1.93300n    0.       999.9836m 
    1.93400n    0.       999.9836m 
    1.93500n    0.       999.9836m 
    1.93600n    0.       999.9836m 
    1.93700n    0.       999.9836m 
    1.93800n    0.       999.9836m 
    1.93900n    0.       999.9836m 
    1.94000n    0.       999.9836m 
    1.94100n    0.       999.9836m 
    1.94200n    0.       999.9836m 
    1.94300n    0.       999.9836m 
    1.94400n    0.       999.9836m 
    1.94500n    0.       999.9836m 
    1.94600n    0.       999.9836m 
    1.94700n    0.       999.9836m 
    1.94800n    0.       999.9836m 
    1.94900n    0.       999.9836m 
    1.95000n    0.       999.9836m 
    1.95100n    0.       999.9836m 
    1.95200n    0.       999.9836m 
    1.95300n    0.       999.9836m 
    1.95400n    0.       999.9836m 
    1.95500n    0.       999.9836m 
    1.95600n    0.       999.9836m 
    1.95700n    0.       999.9836m 
    1.95800n    0.       999.9836m 
    1.95900n    0.       999.9836m 
    1.96000n    0.       999.9836m 
    1.96100n    0.       999.9836m 
    1.96200n    0.       999.9836m 
    1.96300n    0.       999.9836m 
    1.96400n    0.       999.9836m 
    1.96500n    0.       999.9836m 
    1.96600n    0.       999.9836m 
    1.96700n    0.       999.9836m 
    1.96800n    0.       999.9836m 
    1.96900n    0.       999.9836m 
    1.97000n    0.       999.9836m 
    1.97100n    0.       999.9836m 
    1.97200n    0.       999.9836m 
    1.97300n    0.       999.9836m 
    1.97400n    0.       999.9836m 
    1.97500n    0.       999.9836m 
    1.97600n    0.       999.9836m 
    1.97700n    0.       999.9836m 
    1.97800n    0.       999.9836m 
    1.97900n    0.       999.9836m 
    1.98000n    0.       999.9836m 
    1.98100n    0.       999.9836m 
    1.98200n    0.       999.9836m 
    1.98300n    0.       999.9836m 
    1.98400n    0.       999.9836m 
    1.98500n    0.       999.9836m 
    1.98600n    0.       999.9836m 
    1.98700n    0.       999.9836m 
    1.98800n    0.       999.9836m 
    1.98900n    0.       999.9836m 
    1.99000n    0.       999.9836m 
    1.99100n    0.       999.9836m 
    1.99200n    0.       999.9836m 
    1.99300n    0.       999.9836m 
    1.99400n    0.       999.9836m 
    1.99500n    0.       999.9836m 
    1.99600n    0.       999.9836m 
    1.99700n    0.       999.9836m 
    1.99800n    0.       999.9836m 
    1.99900n    0.       999.9836m 
    2.00000n    0.       999.9836m 
    2.00100n    0.       999.9836m 
    2.00200n    0.       999.9836m 
    2.00300n    0.       999.9836m 
    2.00400n    0.       999.9836m 
    2.00500n    0.       999.9836m 
    2.00600n    0.       999.9836m 
    2.00700n    0.       999.9836m 
    2.00800n    0.       999.9836m 
    2.00900n    0.       999.9836m 
    2.01000n    0.       999.9836m 
    2.01100n    0.       999.9836m 
    2.01200n    0.       999.9836m 
    2.01300n    0.       999.9836m 
    2.01400n    0.       999.9836m 
    2.01500n    0.       999.9836m 
    2.01600n    0.       999.9836m 
    2.01700n    0.       999.9836m 
    2.01800n    0.       999.9836m 
    2.01900n    0.       999.9836m 
    2.02000n    0.       999.9836m 
    2.02100n    0.       999.9836m 
    2.02200n    0.       999.9836m 
    2.02300n    0.       999.9836m 
    2.02400n    0.       999.9836m 
    2.02500n    0.       999.9836m 
    2.02600n    0.       999.9836m 
    2.02700n    0.       999.9836m 
    2.02800n    0.       999.9836m 
    2.02900n    0.       999.9836m 
    2.03000n    0.       999.9836m 
    2.03100n    0.       999.9836m 
    2.03200n    0.       999.9836m 
    2.03300n    0.       999.9836m 
    2.03400n    0.       999.9836m 
    2.03500n    0.       999.9836m 
    2.03600n    0.       999.9836m 
    2.03700n    0.       999.9836m 
    2.03800n    0.       999.9836m 
    2.03900n    0.       999.9836m 
    2.04000n    0.       999.9836m 
    2.04100n    0.       999.9836m 
    2.04200n    0.       999.9836m 
    2.04300n    0.       999.9836m 
    2.04400n    0.       999.9836m 
    2.04500n    0.       999.9836m 
    2.04600n    0.       999.9836m 
    2.04700n    0.       999.9836m 
    2.04800n    0.       999.9836m 
    2.04900n    0.       999.9836m 
    2.05000n    0.       999.9836m 
    2.05100n    0.       999.9836m 
    2.05200n    0.       999.9836m 
    2.05300n    0.       999.9836m 
    2.05400n    0.       999.9836m 
    2.05500n    0.       999.9836m 
    2.05600n    0.       999.9836m 
    2.05700n    0.       999.9836m 
    2.05800n    0.       999.9836m 
    2.05900n    0.       999.9836m 
    2.06000n    0.       999.9836m 
    2.06100n    0.       999.9836m 
    2.06200n    0.       999.9836m 
    2.06300n    0.       999.9836m 
    2.06400n    0.       999.9836m 
    2.06500n    0.       999.9836m 
    2.06600n    0.       999.9836m 
    2.06700n    0.       999.9836m 
    2.06800n    0.       999.9836m 
    2.06900n    0.       999.9836m 
    2.07000n    0.       999.9836m 
    2.07100n    0.       999.9836m 
    2.07200n    0.       999.9836m 
    2.07300n    0.       999.9836m 
    2.07400n    0.       999.9836m 
    2.07500n    0.       999.9836m 
    2.07600n    0.       999.9836m 
    2.07700n    0.       999.9836m 
    2.07800n    0.       999.9836m 
    2.07900n    0.       999.9836m 
    2.08000n    0.       999.9836m 
    2.08100n    0.       999.9836m 
    2.08200n    0.       999.9836m 
    2.08300n    0.       999.9836m 
    2.08400n    0.       999.9836m 
    2.08500n    0.       999.9836m 
    2.08600n    0.       999.9836m 
    2.08700n    0.       999.9836m 
    2.08800n    0.       999.9836m 
    2.08900n    0.       999.9836m 
    2.09000n    0.       999.9836m 
    2.09100n    0.       999.9836m 
    2.09200n    0.       999.9836m 
    2.09300n    0.       999.9836m 
    2.09400n    0.       999.9836m 
    2.09500n    0.       999.9836m 
    2.09600n    0.       999.9836m 
    2.09700n    0.       999.9836m 
    2.09800n    0.       999.9836m 
    2.09900n    0.       999.9836m 
    2.10000n    0.       999.9836m 
    2.10100n    0.       999.9836m 
    2.10200n    0.       999.9836m 
    2.10300n    0.       999.9836m 
    2.10400n    0.       999.9836m 
    2.10500n    0.       999.9836m 
    2.10600n    0.       999.9836m 
    2.10700n    0.       999.9836m 
    2.10800n    0.       999.9836m 
    2.10900n    0.       999.9836m 
    2.11000n    0.       999.9836m 
    2.11100n    0.       999.9836m 
    2.11200n    0.       999.9836m 
    2.11300n    0.       999.9836m 
    2.11400n    0.       999.9836m 
    2.11500n    0.       999.9836m 
    2.11600n    0.       999.9836m 
    2.11700n    0.       999.9836m 
    2.11800n    0.       999.9836m 
    2.11900n    0.       999.9836m 
    2.12000n    0.       999.9836m 
    2.12100n    0.       999.9836m 
    2.12200n    0.       999.9836m 
    2.12300n    0.       999.9836m 
    2.12400n    0.       999.9836m 
    2.12500n    0.       999.9836m 
    2.12600n    0.       999.9836m 
    2.12700n    0.       999.9836m 
    2.12800n    0.       999.9836m 
    2.12900n    0.       999.9836m 
    2.13000n    0.       999.9836m 
    2.13100n    0.       999.9836m 
    2.13200n    0.       999.9836m 
    2.13300n    0.       999.9836m 
    2.13400n    0.       999.9836m 
    2.13500n    0.       999.9836m 
    2.13600n    0.       999.9836m 
    2.13700n    0.       999.9836m 
    2.13800n    0.       999.9836m 
    2.13900n    0.       999.9836m 
    2.14000n    0.       999.9836m 
    2.14100n    0.       999.9836m 
    2.14200n    0.       999.9836m 
    2.14300n    0.       999.9836m 
    2.14400n    0.       999.9836m 
    2.14500n    0.       999.9836m 
    2.14600n    0.       999.9836m 
    2.14700n    0.       999.9836m 
    2.14800n    0.       999.9836m 
    2.14900n    0.       999.9836m 
    2.15000n    0.       999.9836m 
    2.15100n    0.       999.9836m 
    2.15200n    0.       999.9836m 
    2.15300n    0.       999.9836m 
    2.15400n    0.       999.9836m 
    2.15500n    0.       999.9836m 
    2.15600n    0.       999.9836m 
    2.15700n    0.       999.9836m 
    2.15800n    0.       999.9836m 
    2.15900n    0.       999.9836m 
    2.16000n    0.       999.9836m 
    2.16100n    0.       999.9836m 
    2.16200n    0.       999.9836m 
[...]
   24.49100n    0.       999.9839m 
   24.49200n    0.       999.9839m 
   24.49300n    0.       999.9839m 
   24.49400n    0.       999.9839m 
   24.49500n    0.       999.9838m 
   24.49600n    0.       999.9838m 
   24.49700n    0.       999.9838m 
   24.49800n    0.       999.9838m 
   24.49900n    0.       999.9838m 
   24.50000n    0.       999.9838m 
   24.50100n    0.       999.9838m 
   24.50200n    0.       999.9838m 
   24.50300n    0.       999.9838m 
   24.50400n    0.       999.9838m 
   24.50500n    0.       999.9838m 
   24.50600n    0.       999.9838m 
   24.50700n    0.       999.9838m 
   24.50800n    0.       999.9838m 
   24.50900n    0.       999.9838m 
   24.51000n    0.       999.9837m 
   24.51100n    0.       999.9837m 
   24.51200n    0.       999.9837m 
   24.51300n    0.       999.9837m 
   24.51400n    0.       999.9837m 
   24.51500n    0.       999.9837m 
   24.51600n    0.       999.9837m 
   24.51700n    0.       999.9837m 
   24.51800n    0.       999.9837m 
   24.51900n    0.       999.9837m 
   24.52000n    0.       999.9837m 
   24.52100n    0.       999.9837m 
   24.52200n    0.       999.9837m 
   24.52300n    0.       999.9837m 
   24.52400n    0.       999.9837m 
   24.52500n    0.       999.9836m 
   24.52600n    0.       999.9836m 
   24.52700n    0.       999.9836m 
   24.52800n    0.       999.9836m 
   24.52900n    0.       999.9836m 
   24.53000n    0.       999.9836m 
   24.53100n    0.       999.9836m 
   24.53200n    0.       999.9836m 
   24.53300n    0.       999.9836m 
   24.53400n    0.       999.9836m 
   24.53500n    0.       999.9836m 
   24.53600n    0.       999.9836m 
   24.53700n    0.       999.9836m 
   24.53800n    0.       999.9836m 
   24.53900n    0.       999.9836m 
   24.54000n    0.       999.9835m 
   24.54100n    0.       999.9835m 
   24.54200n    0.       999.9835m 
   24.54300n    0.       999.9835m 
   24.54400n    0.       999.9835m 
   24.54500n    0.       999.9835m 
   24.54600n    0.       999.9835m 
   24.54700n    0.       999.9835m 
   24.54800n    0.       999.9835m 
   24.54900n    0.       999.9835m 
   24.55000n    0.       999.9835m 
   24.55100n    0.       999.9835m 
   24.55200n    0.       999.9835m 
   24.55300n    0.       999.9835m 
   24.55400n    0.       999.9835m 
   24.55500n    0.       999.9835m 
   24.55600n    0.       999.9834m 
   24.55700n    0.       999.9834m 
   24.55800n    0.       999.9834m 
   24.55900n    0.       999.9834m 
   24.56000n    0.       999.9834m 
   24.56100n    0.       999.9834m 
   24.56200n    0.       999.9834m 
   24.56300n    0.       999.9834m 
   24.56400n    0.       999.9834m 
   24.56500n    0.       999.9834m 
   24.56600n    0.       999.9834m 
   24.56700n    0.       999.9834m 
   24.56800n    0.       999.9834m 
   24.56900n    0.       999.9834m 
   24.57000n    0.       999.9834m 
   24.57100n    0.       999.9833m 
   24.57200n    0.       999.9833m 
   24.57300n    0.       999.9833m 
   24.57400n    0.       999.9833m 
   24.57500n    0.       999.9833m 
   24.57600n    0.       999.9833m 
   24.57700n    0.       999.9833m 
   24.57800n    0.       999.9833m 
   24.57900n    0.       999.9833m 
   24.58000n    0.       999.9833m 
   24.58100n    0.       999.9833m 
   24.58200n    0.       999.9833m 
   24.58300n    0.       999.9833m 
   24.58400n    0.       999.9833m 
   24.58500n    0.       999.9833m 
   24.58600n    0.       999.9832m 
   24.58700n    0.       999.9832m 
   24.58800n    0.       999.9832m 
   24.58900n    0.       999.9832m 
   24.59000n    0.       999.9832m 
   24.59100n    0.       999.9832m 
   24.59200n    0.       999.9832m 
   24.59300n    0.       999.9832m 
   24.59400n    0.       999.9832m 
   24.59500n    0.       999.9832m 
   24.59600n    0.       999.9832m 
   24.59700n    0.       999.9832m 
   24.59800n    0.       999.9832m 
   24.59900n    0.       999.9832m 
   24.60000n    0.       999.9832m 
   24.60100n    0.       999.9831m 
   24.60200n    0.       999.9831m 
   24.60300n    0.       999.9831m 
   24.60400n    0.       999.9831m 
   24.60500n    0.       999.9831m 
   24.60600n    0.       999.9831m 
   24.60700n    0.       999.9831m 
   24.60800n    0.       999.9831m 
   24.60900n    0.       999.9831m 
   24.61000n    0.       999.9831m 
   24.61100n    0.       999.9831m 
   24.61200n    0.       999.9831m 
   24.61300n    0.       999.9831m 
   24.61400n    0.       999.9831m 
   24.61500n    0.       999.9831m 
   24.61600n    0.       999.9830m 
   24.61700n    0.       999.9830m 
   24.61800n    0.       999.9830m 
   24.61900n    0.       999.9830m 
   24.62000n    0.       999.9830m 
   24.62100n    0.       999.9830m 
   24.62200n    0.       999.9830m 
   24.62300n    0.       999.9830m 
   24.62400n    0.       999.9830m 
   24.62500n    0.       999.9830m 
   24.62600n    0.       999.9830m 
   24.62700n    0.       999.9830m 
   24.62800n    0.       999.9830m 
   24.62900n    0.       999.9830m 
   24.63000n    0.       999.9830m 
   24.63100n    0.       999.9829m 
   24.63200n    0.       999.9829m 
   24.63300n    0.       999.9829m 
   24.63400n    0.       999.9829m 
   24.63500n    0.       999.9829m 
   24.63600n    0.       999.9829m 
   24.63700n    0.       999.9829m 
   24.63800n    0.       999.9829m 
   24.63900n    0.       999.9829m 
   24.64000n    0.       999.9829m 
   24.64100n    0.       999.9829m 
   24.64200n    0.       999.9829m 
   24.64300n    0.       999.9829m 
   24.64400n    0.       999.9829m 
   24.64500n    0.       999.9829m 
   24.64600n    0.       999.9828m 
   24.64700n    0.       999.9828m 
   24.64800n    0.       999.9828m 
   24.64900n    0.       999.9828m 
   24.65000n    0.       999.9828m 
   24.65100n    0.       999.9828m 
   24.65200n    0.       999.9828m 
   24.65300n    0.       999.9828m 
   24.65400n    0.       999.9828m 
   24.65500n    0.       999.9828m 
   24.65600n    0.       999.9828m 
   24.65700n    0.       999.9828m 
   24.65800n    0.       999.9828m 
   24.65900n    0.       999.9828m 
   24.66000n    0.       999.9828m 
   24.66100n    0.       999.9828m 
   24.66200n    0.       999.9827m 
   24.66300n    0.       999.9827m 
   24.66400n    0.       999.9827m 
   24.66500n    0.       999.9827m 
   24.66600n    0.       999.9827m 
   24.66700n    0.       999.9827m 
   24.66800n    0.       999.9827m 
   24.66900n    0.       999.9827m 
   24.67000n    0.       999.9827m 
   24.67100n    0.       999.9827m 
   24.67200n    0.       999.9827m 
   24.67300n    0.       999.9827m 
   24.67400n    0.       999.9827m 
   24.67500n    0.       999.9827m 
   24.67600n    0.       999.9827m 
   24.67700n    0.       999.9826m 
   24.67800n    0.       999.9826m 
   24.67900n    0.       999.9826m 
   24.68000n    0.       999.9826m 
   24.68100n    0.       999.9826m 
   24.68200n    0.       999.9826m 
   24.68300n    0.       999.9826m 
   24.68400n    0.       999.9826m 
   24.68500n    0.       999.9826m 
   24.68600n    0.       999.9826m 
   24.68700n    0.       999.9826m 
   24.68800n    0.       999.9826m 
   24.68900n    0.       999.9826m 
   24.69000n    0.       999.9826m 
   24.69100n    0.       999.9826m 
   24.69200n    0.       999.9825m 
   24.69300n    0.       999.9825m 
   24.69400n    0.       999.9825m 
   24.69500n    0.       999.9825m 
   24.69600n    0.       999.9825m 
   24.69700n    0.       999.9825m 
   24.69800n    0.       999.9825m 
   24.69900n    0.       999.9825m 
   24.70000n    0.       999.9825m 
   24.70100n    0.       999.9825m 
   24.70200n    0.       999.9825m 
   24.70300n    0.       999.9825m 
   24.70400n    0.       999.9825m 
   24.70500n    0.       999.9825m 
   24.70600n    0.       999.9825m 
   24.70700n    0.       999.9824m 
   24.70800n    0.       999.9824m 
   24.70900n    0.       999.9824m 
   24.71000n    0.       999.9824m 
   24.71100n    0.       999.9824m 
   24.71200n    0.       999.9824m 
   24.71300n    0.       999.9824m 
   24.71400n    0.       999.9824m 
   24.71500n    0.       999.9824m 
   24.71600n    0.       999.9824m 
   24.71700n    0.       999.9824m 
   24.71800n    0.       999.9824m 
   24.71900n    0.       999.9824m 
   24.72000n    0.       999.9824m 
   24.72100n    0.       999.9824m 
   24.72200n    0.       999.9823m 
   24.72300n    0.       999.9823m 
   24.72400n    0.       999.9823m 
   24.72500n    0.       999.9823m 
   24.72600n    0.       999.9823m 
   24.72700n    0.       999.9823m 
   24.72800n    0.       999.9823m 
   24.72900n    0.       999.9823m 
   24.73000n    0.       999.9823m 
   24.73100n    0.       999.9823m 
   24.73200n    0.       999.9823m 
   24.73300n    0.       999.9823m 
   24.73400n    0.       999.9823m 
   24.73500n    0.       999.9823m 
   24.73600n    0.       999.9823m 
   24.73700n    0.       999.9822m 
   24.73800n    0.       999.9822m 
   24.73900n    0.       999.9822m 
   24.74000n    0.       999.9822m 
   24.74100n    0.       999.9822m 
   24.74200n    0.       999.9822m 
   24.74300n    0.       999.9822m 
   24.74400n    0.       999.9822m 
   24.74500n    0.       999.9822m 
   24.74600n    0.       999.9822m 
   24.74700n    0.       999.9822m 
   24.74800n    0.       999.9822m 
   24.74900n    0.       999.9822m 
   24.75000n    0.       999.9822m 
   24.75100n    0.       999.9822m 
   24.75200n    0.       999.9821m 
   24.75300n    0.       999.9821m 
   24.75400n    0.       999.9821m 
   24.75500n    0.       999.9821m 
   24.75600n    0.       999.9821m 
   24.75700n    0.       999.9821m 
   24.75800n    0.       999.9821m 
   24.75900n    0.       999.9821m 
   24.76000n    0.       999.9821m 
   24.76100n    0.       999.9821m 
   24.76200n    0.       999.9821m 
   24.76300n    0.       999.9821m 
   24.76400n    0.       999.9821m 
   24.76500n    0.       999.9821m 
   24.76600n    0.       999.9821m 
   24.76700n    0.       999.9821m 
   24.76800n    0.       999.9820m 
   24.76900n    0.       999.9820m 
   24.77000n    0.       999.9820m 
   24.77100n    0.       999.9820m 
   24.77200n    0.       999.9820m 
   24.77300n    0.       999.9820m 
   24.77400n    0.       999.9820m 
   24.77500n    0.       999.9820m 
   24.77600n    0.       999.9820m 
   24.77700n    0.       999.9820m 
   24.77800n    0.       999.9820m 
   24.77900n    0.       999.9820m 
   24.78000n    0.       999.9820m 
   24.78100n    0.       999.9820m 
   24.78200n    0.       999.9820m 
   24.78300n    0.       999.9819m 
   24.78400n    0.       999.9819m 
   24.78500n    0.       999.9819m 
   24.78600n    0.       999.9819m 
   24.78700n    0.       999.9819m 
   24.78800n    0.       999.9819m 
   24.78900n    0.       999.9819m 
   24.79000n    0.       999.9819m 
   24.79100n    0.       999.9819m 
   24.79200n    0.       999.9819m 
   24.79300n    0.       999.9819m 
   24.79400n    0.       999.9819m 
   24.79500n    0.       999.9819m 
   24.79600n    0.       999.9819m 
   24.79700n    0.       999.9819m 
   24.79800n    0.       999.9818m 
   24.79900n    0.       999.9818m 
   24.80000n    0.       999.9818m 
   24.80100n    0.       999.9818m 
   24.80200n    0.       999.9818m 
   24.80300n    0.       999.9818m 
   24.80400n    0.       999.9818m 
   24.80500n    0.       999.9818m 
   24.80600n    0.       999.9818m 
   24.80700n    0.       999.9818m 
   24.80800n    0.       999.9818m 
   24.80900n    0.       999.9818m 
   24.81000n    0.       999.9818m 
   24.81100n    0.       999.9818m 
   24.81200n    0.       999.9818m 
   24.81300n    0.       999.9817m 
   24.81400n    0.       999.9817m 
   24.81500n    0.       999.9817m 
   24.81600n    0.       999.9817m 
   24.81700n    0.       999.9817m 
   24.81800n    0.       999.9817m 
   24.81900n    0.       999.9817m 
   24.82000n    0.       999.9817m 
   24.82100n    0.       999.9817m 
   24.82200n    0.       999.9817m 
   24.82300n    0.       999.9817m 
   24.82400n    0.       999.9817m 
   24.82500n    0.       999.9817m 
   24.82600n    0.       999.9817m 
   24.82700n    0.       999.9817m 
   24.82800n    0.       999.9816m 
   24.82900n    0.       999.9816m 
   24.83000n    0.       999.9816m 
   24.83100n    0.       999.9816m 
   24.83200n    0.       999.9816m 
   24.83300n    0.       999.9816m 
   24.83400n    0.       999.9816m 
   24.83500n    0.       999.9816m 
   24.83600n    0.       999.9816m 
   24.83700n    0.       999.9816m 
   24.83800n    0.       999.9816m 
   24.83900n    0.       999.9816m 
   24.84000n    0.       999.9816m 
   24.84100n    0.       999.9816m 
   24.84200n    0.       999.9816m 
   24.84300n    0.       999.9815m 
   24.84400n    0.       999.9815m 
   24.84500n    0.       999.9815m 
   24.84600n    0.       999.9815m 
   24.84700n    0.       999.9815m 
   24.84800n    0.       999.9815m 
   24.84900n    0.       999.9815m 
   24.85000n    0.       999.9815m 
   24.85100n    0.       999.9815m 
   24.85200n    0.       999.9815m 
   24.85300n    0.       999.9815m 
   24.85400n    0.       999.9815m 
   24.85500n    0.       999.9815m 
   24.85600n    0.       999.9815m 
   24.85700n    0.       999.9815m 
   24.85800n    0.       999.9814m 
   24.85900n    0.       999.9814m 
   24.86000n    0.       999.9814m 
   24.86100n    0.       999.9814m 
   24.86200n    0.       999.9814m 
   24.86300n    0.       999.9814m 
   24.86400n    0.       999.9814m 
   24.86500n    0.       999.9814m 
   24.86600n    0.       999.9814m 
   24.86700n    0.       999.9814m 
   24.86800n    0.       999.9814m 
   24.86900n    0.       999.9814m 
   24.87000n    0.       999.9814m 
   24.87100n    0.       999.9814m 
   24.87200n    0.       999.9814m 
   24.87300n    0.       999.9814m 
   24.87400n    0.       999.9813m 
   24.87500n    0.       999.9813m 
   24.87600n    0.       999.9813m 
   24.87700n    0.       999.9813m 
   24.87800n    0.       999.9813m 
   24.87900n    0.       999.9813m 
   24.88000n    0.       999.9813m 
   24.88100n    0.       999.9813m 
   24.88200n    0.       999.9813m 
   24.88300n    0.       999.9813m 
   24.88400n    0.       999.9813m 
   24.88500n    0.       999.9813m 
   24.88600n    0.       999.9813m 
   24.88700n    0.       999.9813m 
   24.88800n    0.       999.9813m 
   24.88900n    0.       999.9812m 
   24.89000n    0.       999.9812m 
   24.89100n    0.       999.9812m 
   24.89200n    0.       999.9812m 
   24.89300n    0.       999.9812m 
   24.89400n    0.       999.9812m 
   24.89500n    0.       999.9812m 
   24.89600n    0.       999.9812m 
   24.89700n    0.       999.9812m 
   24.89800n    0.       999.9812m 
   24.89900n    0.       999.9812m 
   24.90000n    0.       999.9812m 
   24.90100n    0.       999.9812m 
   24.90200n    0.       999.9812m 
   24.90300n    0.       999.9812m 
   24.90400n    0.       999.9811m 
   24.90500n    0.       999.9811m 
   24.90600n    0.       999.9811m 
   24.90700n    0.       999.9811m 
   24.90800n    0.       999.9811m 
   24.90900n    0.       999.9811m 
   24.91000n    0.       999.9811m 
   24.91100n    0.       999.9811m 
   24.91200n    0.       999.9811m 
   24.91300n    0.       999.9811m 
   24.91400n    0.       999.9811m 
   24.91500n    0.       999.9811m 
   24.91600n    0.       999.9811m 
   24.91700n    0.       999.9811m 
   24.91800n    0.       999.9811m 
   24.91900n    0.       999.9810m 
   24.92000n    0.       999.9810m 
   24.92100n    0.       999.9810m 
   24.92200n    0.       999.9810m 
   24.92300n    0.       999.9810m 
   24.92400n    0.       999.9810m 
   24.92500n    0.       999.9810m 
   24.92600n    0.       999.9810m 
   24.92700n    0.       999.9810m 
   24.92800n    0.       999.9810m 
   24.92900n    0.       999.9810m 
   24.93000n    0.       999.9810m 
   24.93100n    0.       999.9810m 
   24.93200n    0.       999.9810m 
   24.93300n    0.       999.9810m 
   24.93400n    0.       999.9809m 
   24.93500n    0.       999.9809m 
   24.93600n    0.       999.9809m 
   24.93700n    0.       999.9809m 
   24.93800n    0.       999.9809m 
   24.93900n    0.       999.9809m 
   24.94000n    0.       999.9809m 
   24.94100n    0.       999.9809m 
   24.94200n    0.       999.9809m 
   24.94300n    0.       999.9809m 
   24.94400n    0.       999.9809m 
   24.94500n    0.       999.9809m 
   24.94600n    0.       999.9809m 
   24.94700n    0.       999.9809m 
   24.94800n    0.       999.9809m 
   24.94900n    0.       999.9808m 
   24.95000n    0.       999.9808m 
   24.95100n    0.       999.9808m 
   24.95200n    0.       999.9808m 
   24.95300n    0.       999.9808m 
   24.95400n    0.       999.9808m 
   24.95500n    0.       999.9808m 
   24.95600n    0.       999.9808m 
   24.95700n    0.       999.9808m 
   24.95800n    0.       999.9808m 
   24.95900n    0.       999.9808m 
   24.96000n    0.       999.9808m 
   24.96100n    0.       999.9808m 
   24.96200n    0.       999.9808m 
   24.96300n    0.       999.9808m 
   24.96400n    0.       999.9807m 
   24.96500n    0.       999.9807m 
   24.96600n    0.       999.9807m 
   24.96700n    0.       999.9807m 
   24.96800n    0.       999.9807m 
   24.96900n    0.       999.9807m 
   24.97000n    0.       999.9807m 
   24.97100n    0.       999.9807m 
   24.97200n    0.       999.9807m 
   24.97300n    0.       999.9807m 
   24.97400n    0.       999.9807m 
   24.97500n    0.       999.9807m 
   24.97600n    0.       999.9807m 
   24.97700n    0.       999.9807m 
   24.97800n    0.       999.9807m 
   24.97900n    0.       999.9807m 
   24.98000n    0.       999.9806m 
   24.98100n    0.       999.9806m 
   24.98200n    0.       999.9806m 
   24.98300n    0.       999.9806m 
   24.98400n    0.       999.9806m 
   24.98500n    0.       999.9806m 
   24.98600n    0.       999.9806m 
   24.98700n    0.       999.9806m 
   24.98800n    0.       999.9806m 
   24.98900n    0.       999.9806m 
   24.99000n    0.       999.9806m 
   24.99100n    0.       999.9806m 
   24.99200n    0.       999.9806m 
   24.99300n    0.       999.9806m 
   24.99400n    0.       999.9806m 
   24.99500n    0.       999.9805m 
   24.99600n    0.       999.9805m 
   24.99700n    0.       999.9805m 
   24.99800n    0.       999.9805m 
   24.99900n    0.       999.9805m 
   25.00000n    0.       999.9805m 
y
 thl=   5.0168n
 tlh=  10.0248n

          ***** job concluded
 ******  
 

 ****** job statistics summary tnom=  25.000 temp=  25.000 ******

  ******  HSPICE Threads Information  ******

  Command Line Threads Count :     1
  Available CPU Count        :     8
  Actual Threads Count       :     1


  ******  Circuit Statistics  ******
  # nodes       =      21 # elements   =       6
  # resistors   =       0 # capacitors =       0 # inductors   =       0
  # mutual_inds =       0 # vccs       =       0 # vcvs        =       0
  # cccs        =       0 # ccvs       =       0 # volt_srcs   =       2
  # curr_srcs   =       0 # diodes     =       0 # bjts        =       0
  # jfets       =       0 # mosfets    =       4 # U elements  =       0
  # T elements  =       0 # W elements =       0 # B elements  =       0
  # S elements  =       0 # P elements =       0 # va device   =       0
  # vector_srcs =       0 # N elements =       0


  ******  Runtime Statistics (seconds)  ******

  analysis           time    # points   tot. iter  conv.iter
  op point           0.00           1           4
  transient          0.00       25001         172          72 rev=         4
  readin             0.01
  errchk             0.00
  setup              0.00
  output             0.00


           peak memory used         60.68 megabytes
           total cpu time            0.13 seconds
           total elapsed time        0.15 seconds
           job started at     18:40:01 11/14/2021
           job ended   at     18:40:02 11/14/2021


  lic: Release hspice token(s) 
 lic: total license checkout elapse time:        0.02(s)
