 ****** HSPICE -- O-2018.09-SP2 win64 (Feb 25 2019) ******                      
  Copyright (c) 1986 - 2021 by Synopsys, Inc. All Rights Reserved.              
  This software and the associated documentation are proprietary
  to Synopsys, Inc. This software may only be used in accordance
  with the terms and conditions of a written license agreement with
  Synopsys, Inc. All other use, reproduction, or distribution of
  this software is strictly prohibited.
  Input File: supper_buffer.sp                                                  
  Command line options: C:\synopsys\Hspice_O-2018.09-SP2\WIN64\hspice.com -i supper_buffer.sp -o C:\sdsy\task2\case3\supper_buffer.lis
  Start time: Sun Nov 14 18:59:55 2021
  lic:  
  lic: FLEXlm: SDK_11.7.3 
  lic: USER:   admin                HOSTNAME: DESKTOP-3KO7170 
  lic: HOSTID: "d83bbfb49802"       PID:      29264 
  lic: Using FLEXlm license file: 
  lic: 27000@DESKTOP-3KO7170 
  lic: Checkout 1 hspice 
  lic: License/Maintenance for hspice will expire on 30-dec-2029/2019.2019 
  lic: 1(in_use)/99(total) FLOATING license(s) on SERVER 27000@DESKTOP-3KO7170 
  lic:   
  **info** (supper_buffer.sp:25) DC voltage reset to initial transient source value in source 0:vin. new dc=0.0000D+00
  
      

Element variations(Local):   element              parameter
 **info** set option symb=1 internally to help for convergence.
 *****************************************************************
 ******  option summary
 ******
 runlvl  = 3         bypass  = 2.0000    
 **info** dc convergence successful at Newton-Raphson method 
1****** HSPICE -- O-2018.09-SP2 win64 (Feb 25 2019) ******                      
 ******  
 

 ****** operating point information tnom=  25.000 temp=  25.000 ******
 ****** operating point status is voltage   simulation time is     0.     
    node    =voltage      node    =voltage      node    =voltage

 +0:vdd     =   1.0000  0:vin     =   0.      0:vout1   = 999.9151m
 +0:vout2   =  61.7962u 0:vout3   = 999.8465m 0:vout4   =   9.9326u

 ******
 

 ****** transient analysis tnom=  25.000 temp=  25.000 ******
x

 time         voltage    voltage   
             vin        vout4      
    0.          0.         9.9326u 
    1.00000p    0.         9.9326u 
    2.00000p    0.         9.9326u 
    3.00000p    0.         9.9326u 
    4.00000p    0.         9.9326u 
    5.00000p    0.         9.9326u 
    6.00000p    0.         9.9326u 
    7.00000p    0.         9.9326u 
    8.00000p    0.         9.9326u 
    9.00000p    0.         9.9326u 
   10.00000p    0.         9.9326u 
   11.00000p    0.         9.9326u 
   12.00000p    0.         9.9326u 
   13.00000p    0.         9.9326u 
   14.00000p    0.         9.9326u 
   15.00000p    0.         9.9326u 
   16.00000p    0.         9.9326u 
   17.00000p    0.         9.9326u 
   18.00000p    0.         9.9326u 
   19.00000p    0.         9.9326u 
   20.00000p    0.         9.9326u 
   21.00000p    0.         9.9326u 
   22.00000p    0.         9.9326u 
   23.00000p    0.         9.9326u 
   24.00000p    0.         9.9326u 
   25.00000p    0.         9.9326u 
   26.00000p    0.         9.9326u 
   27.00000p    0.         9.9326u 
   28.00000p    0.         9.9326u 
   29.00000p    0.         9.9326u 
   30.00000p    0.         9.9326u 
   31.00000p    0.         9.9326u 
   32.00000p    0.         9.9326u 
   33.00000p    0.         9.9326u 
   34.00000p    0.         9.9326u 
   35.00000p    0.         9.9326u 
   36.00000p    0.         9.9326u 
   37.00000p    0.         9.9326u 
   38.00000p    0.         9.9326u 
   39.00000p    0.         9.9326u 
   40.00000p    0.         9.9326u 
   41.00000p    0.         9.9326u 
   42.00000p    0.         9.9326u 
   43.00000p    0.         9.9326u 
   44.00000p    0.         9.9326u 
   45.00000p    0.         9.9326u 
   46.00000p    0.         9.9326u 
   47.00000p    0.         9.9326u 
   48.00000p    0.         9.9326u 
   49.00000p    0.         9.9326u 
   50.00000p    0.         9.9326u 
   51.00000p    0.         9.9326u 
   52.00000p    0.         9.9326u 
   53.00000p    0.         9.9326u 
   54.00000p    0.         9.9326u 
   55.00000p    0.         9.9326u 
   56.00000p    0.         9.9326u 
   57.00000p    0.         9.9326u 
   58.00000p    0.         9.9326u 
   59.00000p    0.         9.9326u 
   60.00000p    0.         9.9326u 
   61.00000p    0.         9.9326u 
   62.00000p    0.         9.9326u 
   63.00000p    0.         9.9326u 
   64.00000p    0.         9.9326u 
   65.00000p    0.         9.9326u 
   66.00000p    0.         9.9326u 
   67.00000p    0.         9.9326u 
   68.00000p    0.         9.9326u 
   69.00000p    0.         9.9326u 
   70.00000p    0.         9.9326u 
   71.00000p    0.         9.9326u 
   72.00000p    0.         9.9326u 
   73.00000p    0.         9.9326u 
   74.00000p    0.         9.9326u 
   75.00000p    0.         9.9326u 
   76.00000p    0.         9.9326u 
   77.00000p    0.         9.9326u 
   78.00000p    0.         9.9326u 
   79.00000p    0.         9.9326u 
   80.00000p    0.         9.9326u 
   81.00000p    0.         9.9326u 
   82.00000p    0.         9.9326u 
   83.00000p    0.         9.9326u 
   84.00000p    0.         9.9326u 
   85.00000p    0.         9.9326u 
   86.00000p    0.         9.9326u 
   87.00000p    0.         9.9326u 
   88.00000p    0.         9.9326u 
   89.00000p    0.         9.9326u 
   90.00000p    0.         9.9326u 
   91.00000p    0.         9.9326u 
   92.00000p    0.         9.9326u 
   93.00000p    0.         9.9326u 
   94.00000p    0.         9.9326u 
   95.00000p    0.         9.9326u 
   96.00000p    0.         9.9326u 
   97.00000p    0.         9.9326u 
   98.00000p    0.         9.9326u 
   99.00000p    0.         9.9326u 
  100.00000p    0.         9.9326u 
  101.00000p    0.         9.9326u 
  102.00000p    0.         9.9326u 
  103.00000p    0.         9.9326u 
  104.00000p    0.         9.9326u 
  105.00000p    0.         9.9326u 
  106.00000p    0.         9.9326u 
  107.00000p    0.         9.9326u 
  108.00000p    0.         9.9326u 
  109.00000p    0.         9.9326u 
  110.00000p    0.         9.9326u 
  111.00000p    0.         9.9326u 
  112.00000p    0.         9.9326u 
  113.00000p    0.         9.9326u 
  114.00000p    0.         9.9326u 
  115.00000p    0.         9.9326u 
  116.00000p    0.         9.9326u 
  117.00000p    0.         9.9326u 
  118.00000p    0.         9.9326u 
  119.00000p    0.         9.9326u 
  120.00000p    0.         9.9326u 
  121.00000p    0.         9.9326u 
  122.00000p    0.         9.9326u 
  123.00000p    0.         9.9326u 
  124.00000p    0.         9.9326u 
  125.00000p    0.         9.9326u 
  126.00000p    0.         9.9326u 
  127.00000p    0.         9.9326u 
  128.00000p    0.         9.9326u 
  129.00000p    0.         9.9326u 
  130.00000p    0.         9.9326u 
  131.00000p    0.         9.9326u 
  132.00000p    0.         9.9326u 
  133.00000p    0.         9.9326u 
  134.00000p    0.         9.9326u 
  135.00000p    0.         9.9326u 
  136.00000p    0.         9.9326u 
  137.00000p    0.         9.9326u 
  138.00000p    0.         9.9326u 
  139.00000p    0.         9.9326u 
  140.00000p    0.         9.9326u 
  141.00000p    0.         9.9326u 
  142.00000p    0.         9.9326u 
  143.00000p    0.         9.9326u 
  144.00000p    0.         9.9326u 
  145.00000p    0.         9.9326u 
  146.00000p    0.         9.9326u 
  147.00000p    0.         9.9326u 
  148.00000p    0.         9.9326u 
  149.00000p    0.         9.9326u 
  150.00000p    0.         9.9326u 
  151.00000p    0.         9.9326u 
  152.00000p    0.         9.9326u 
  153.00000p    0.         9.9326u 
  154.00000p    0.         9.9326u 
  155.00000p    0.         9.9326u 
  156.00000p    0.         9.9326u 
  157.00000p    0.         9.9326u 
  158.00000p    0.         9.9326u 
  159.00000p    0.         9.9326u 
  160.00000p    0.         9.9326u 
  161.00000p    0.         9.9326u 
  162.00000p    0.         9.9326u 
  163.00000p    0.         9.9326u 
  164.00000p    0.         9.9326u 
  165.00000p    0.         9.9326u 
  166.00000p    0.         9.9326u 
  167.00000p    0.         9.9326u 
  168.00000p    0.         9.9326u 
  169.00000p    0.         9.9326u 
  170.00000p    0.         9.9326u 
  171.00000p    0.         9.9326u 
  172.00000p    0.         9.9326u 
  173.00000p    0.         9.9326u 
  174.00000p    0.         9.9326u 
  175.00000p    0.         9.9326u 
  176.00000p    0.         9.9326u 
  177.00000p    0.         9.9326u 
  178.00000p    0.         9.9326u 
  179.00000p    0.         9.9326u 
  180.00000p    0.         9.9326u 
  181.00000p    0.         9.9326u 
  182.00000p    0.         9.9326u 
  183.00000p    0.         9.9326u 
  184.00000p    0.         9.9326u 
  185.00000p    0.         9.9326u 
  186.00000p    0.         9.9326u 
  187.00000p    0.         9.9326u 
  188.00000p    0.         9.9326u 
  189.00000p    0.         9.9326u 
  190.00000p    0.         9.9326u 
  191.00000p    0.         9.9326u 
  192.00000p    0.         9.9326u 
  193.00000p    0.         9.9326u 
  194.00000p    0.         9.9326u 
  195.00000p    0.         9.9326u 
  196.00000p    0.         9.9326u 
  197.00000p    0.         9.9326u 
  198.00000p    0.         9.9326u 
  199.00000p    0.         9.9326u 
  200.00000p    0.         9.9326u 
  201.00000p    0.         9.9326u 
  202.00000p    0.         9.9326u 
  203.00000p    0.         9.9326u 
  204.00000p    0.         9.9326u 
  205.00000p    0.         9.9326u 
  206.00000p    0.         9.9326u 
  207.00000p    0.         9.9326u 
  208.00000p    0.         9.9326u 
  209.00000p    0.         9.9326u 
  210.00000p    0.         9.9326u 
  211.00000p    0.         9.9326u 
  212.00000p    0.         9.9326u 
  213.00000p    0.         9.9326u 
  214.00000p    0.         9.9326u 
  215.00000p    0.         9.9326u 
  216.00000p    0.         9.9326u 
  217.00000p    0.         9.9326u 
  218.00000p    0.         9.9326u 
  219.00000p    0.         9.9326u 
  220.00000p    0.         9.9326u 
  221.00000p    0.         9.9326u 
  222.00000p    0.         9.9326u 
  223.00000p    0.         9.9326u 
  224.00000p    0.         9.9326u 
  225.00000p    0.         9.9326u 
  226.00000p    0.         9.9326u 
  227.00000p    0.         9.9326u 
  228.00000p    0.         9.9326u 
  229.00000p    0.         9.9326u 
  230.00000p    0.         9.9326u 
  231.00000p    0.         9.9326u 
  232.00000p    0.         9.9326u 
  233.00000p    0.         9.9326u 
  234.00000p    0.         9.9326u 
  235.00000p    0.         9.9326u 
  236.00000p    0.         9.9326u 
  237.00000p    0.         9.9326u 
  238.00000p    0.         9.9326u 
  239.00000p    0.         9.9326u 
  240.00000p    0.         9.9326u 
  241.00000p    0.         9.9326u 
  242.00000p    0.         9.9326u 
  243.00000p    0.         9.9326u 
  244.00000p    0.         9.9326u 
  245.00000p    0.         9.9326u 
  246.00000p    0.         9.9326u 
  247.00000p    0.         9.9326u 
  248.00000p    0.         9.9326u 
  249.00000p    0.         9.9326u 
  250.00000p    0.         9.9326u 
  251.00000p    0.         9.9326u 
  252.00000p    0.         9.9326u 
  253.00000p    0.         9.9326u 
  254.00000p    0.         9.9326u 
  255.00000p    0.         9.9326u 
  256.00000p    0.         9.9326u 
  257.00000p    0.         9.9326u 
  258.00000p    0.         9.9326u 
  259.00000p    0.         9.9326u 
  260.00000p    0.         9.9326u 
  261.00000p    0.         9.9326u 
  262.00000p    0.         9.9326u 
  263.00000p    0.         9.9326u 
  264.00000p    0.         9.9326u 
  265.00000p    0.         9.9326u 
  266.00000p    0.         9.9326u 
  267.00000p    0.         9.9326u 
  268.00000p    0.         9.9326u 
  269.00000p    0.         9.9326u 
  270.00000p    0.         9.9326u 
  271.00000p    0.         9.9326u 
  272.00000p    0.         9.9326u 
  273.00000p    0.         9.9326u 
  274.00000p    0.         9.9326u 
  275.00000p    0.         9.9326u 
  276.00000p    0.         9.9326u 
  277.00000p    0.         9.9326u 
  278.00000p    0.         9.9326u 
  279.00000p    0.         9.9326u 
  280.00000p    0.         9.9326u 
  281.00000p    0.         9.9326u 
  282.00000p    0.         9.9326u 
  283.00000p    0.         9.9326u 
  284.00000p    0.         9.9326u 
  285.00000p    0.         9.9326u 
  286.00000p    0.         9.9326u 
  287.00000p    0.         9.9326u 
  288.00000p    0.         9.9326u 
  289.00000p    0.         9.9326u 
  290.00000p    0.         9.9326u 
  291.00000p    0.         9.9326u 
  292.00000p    0.         9.9326u 
  293.00000p    0.         9.9326u 
  294.00000p    0.         9.9326u 
  295.00000p    0.         9.9326u 
  296.00000p    0.         9.9326u 
  297.00000p    0.         9.9326u 
  298.00000p    0.         9.9326u 
  299.00000p    0.         9.9326u 
  300.00000p    0.         9.9326u 
  301.00000p    0.         9.9326u 
  302.00000p    0.         9.9326u 
  303.00000p    0.         9.9326u 
  304.00000p    0.         9.9326u 
  305.00000p    0.         9.9326u 
  306.00000p    0.         9.9326u 
  307.00000p    0.         9.9326u 
  308.00000p    0.         9.9326u 
  309.00000p    0.         9.9326u 
  310.00000p    0.         9.9326u 
  311.00000p    0.         9.9326u 
  312.00000p    0.         9.9326u 
  313.00000p    0.         9.9326u 
  314.00000p    0.         9.9326u 
  315.00000p    0.         9.9326u 
  316.00000p    0.         9.9326u 
  317.00000p    0.         9.9326u 
  318.00000p    0.         9.9326u 
  319.00000p    0.         9.9326u 
  320.00000p    0.         9.9326u 
  321.00000p    0.         9.9326u 
  322.00000p    0.         9.9326u 
  323.00000p    0.         9.9326u 
  324.00000p    0.         9.9326u 
  325.00000p    0.         9.9326u 
  326.00000p    0.         9.9326u 
  327.00000p    0.         9.9326u 
  328.00000p    0.         9.9326u 
  329.00000p    0.         9.9326u 
  330.00000p    0.         9.9326u 
  331.00000p    0.         9.9326u 
  332.00000p    0.         9.9326u 
  333.00000p    0.         9.9326u 
  334.00000p    0.         9.9326u 
  335.00000p    0.         9.9326u 
  336.00000p    0.         9.9326u 
  337.00000p    0.         9.9326u 
  338.00000p    0.         9.9326u 
  339.00000p    0.         9.9326u 
  340.00000p    0.         9.9326u 
  341.00000p    0.         9.9326u 
  342.00000p    0.         9.9326u 
  343.00000p    0.         9.9326u 
  344.00000p    0.         9.9326u 
  345.00000p    0.         9.9326u 
  346.00000p    0.         9.9326u 
  347.00000p    0.         9.9326u 
  348.00000p    0.         9.9326u 
  349.00000p    0.         9.9326u 
  350.00000p    0.         9.9326u 
  351.00000p    0.         9.9326u 
  352.00000p    0.         9.9326u 
  353.00000p    0.         9.9326u 
  354.00000p    0.         9.9326u 
  355.00000p    0.         9.9326u 
  356.00000p    0.         9.9326u 
  357.00000p    0.         9.9326u 
  358.00000p    0.         9.9326u 
  359.00000p    0.         9.9326u 
  360.00000p    0.         9.9326u 
  361.00000p    0.         9.9326u 
  362.00000p    0.         9.9326u 
  363.00000p    0.         9.9326u 
  364.00000p    0.         9.9326u 
  365.00000p    0.         9.9326u 
  366.00000p    0.         9.9326u 
  367.00000p    0.         9.9326u 
  368.00000p    0.         9.9326u 
  369.00000p    0.         9.9326u 
  370.00000p    0.         9.9326u 
  371.00000p    0.         9.9326u 
  372.00000p    0.         9.9326u 
  373.00000p    0.         9.9326u 
  374.00000p    0.         9.9326u 
  375.00000p    0.         9.9326u 
  376.00000p    0.         9.9326u 
  377.00000p    0.         9.9326u 
  378.00000p    0.         9.9326u 
  379.00000p    0.         9.9326u 
  380.00000p    0.         9.9326u 
  381.00000p    0.         9.9326u 
  382.00000p    0.         9.9326u 
  383.00000p    0.         9.9326u 
  384.00000p    0.         9.9326u 
  385.00000p    0.         9.9326u 
  386.00000p    0.         9.9326u 
  387.00000p    0.         9.9326u 
  388.00000p    0.         9.9326u 
  389.00000p    0.         9.9326u 
  390.00000p    0.         9.9326u 
  391.00000p    0.         9.9326u 
  392.00000p    0.         9.9326u 
  393.00000p    0.         9.9326u 
  394.00000p    0.         9.9326u 
  395.00000p    0.         9.9326u 
  396.00000p    0.         9.9326u 
  397.00000p    0.         9.9326u 
  398.00000p    0.         9.9326u 
  399.00000p    0.         9.9326u 
  400.00000p    0.         9.9326u 
  401.00000p    0.         9.9326u 
  402.00000p    0.         9.9326u 
  403.00000p    0.         9.9326u 
  404.00000p    0.         9.9326u 
  405.00000p    0.         9.9326u 
  406.00000p    0.         9.9326u 
  407.00000p    0.         9.9326u 
  408.00000p    0.         9.9326u 
  409.00000p    0.         9.9326u 
  410.00000p    0.         9.9326u 
  411.00000p    0.         9.9326u 
  412.00000p    0.         9.9326u 
  413.00000p    0.         9.9326u 
  414.00000p    0.         9.9326u 
  415.00000p    0.         9.9326u 
  416.00000p    0.         9.9326u 
  417.00000p    0.         9.9326u 
  418.00000p    0.         9.9326u 
  419.00000p    0.         9.9326u 
  420.00000p    0.         9.9326u 
  421.00000p    0.         9.9326u 
  422.00000p    0.         9.9326u 
  423.00000p    0.         9.9326u 
  424.00000p    0.         9.9326u 
  425.00000p    0.         9.9326u 
  426.00000p    0.         9.9326u 
  427.00000p    0.         9.9326u 
  428.00000p    0.         9.9326u 
  429.00000p    0.         9.9326u 
  430.00000p    0.         9.9326u 
  431.00000p    0.         9.9326u 
  432.00000p    0.         9.9326u 
  433.00000p    0.         9.9326u 
  434.00000p    0.         9.9326u 
  435.00000p    0.         9.9326u 
  436.00000p    0.         9.9326u 
  437.00000p    0.         9.9326u 
  438.00000p    0.         9.9326u 
  439.00000p    0.         9.9326u 
  440.00000p    0.         9.9326u 
  441.00000p    0.         9.9326u 
  442.00000p    0.         9.9326u 
  443.00000p    0.         9.9326u 
  444.00000p    0.         9.9326u 
  445.00000p    0.         9.9326u 
  446.00000p    0.         9.9326u 
  447.00000p    0.         9.9326u 
  448.00000p    0.         9.9326u 
  449.00000p    0.         9.9326u 
  450.00000p    0.         9.9326u 
  451.00000p    0.         9.9326u 
  452.00000p    0.         9.9326u 
  453.00000p    0.         9.9326u 
  454.00000p    0.         9.9326u 
  455.00000p    0.         9.9326u 
  456.00000p    0.         9.9326u 
  457.00000p    0.         9.9326u 
  458.00000p    0.         9.9326u 
  459.00000p    0.         9.9326u 
  460.00000p    0.         9.9326u 
  461.00000p    0.         9.9326u 
  462.00000p    0.         9.9326u 
  463.00000p    0.         9.9326u 
  464.00000p    0.         9.9326u 
  465.00000p    0.         9.9326u 
  466.00000p    0.         9.9326u 
  467.00000p    0.         9.9326u 
  468.00000p    0.         9.9326u 
  469.00000p    0.         9.9326u 
  470.00000p    0.         9.9326u 
  471.00000p    0.         9.9326u 
  472.00000p    0.         9.9326u 
  473.00000p    0.         9.9326u 
  474.00000p    0.         9.9326u 
  475.00000p    0.         9.9326u 
  476.00000p    0.         9.9326u 
  477.00000p    0.         9.9326u 
  478.00000p    0.         9.9326u 
  479.00000p    0.         9.9326u 
  480.00000p    0.         9.9326u 
  481.00000p    0.         9.9326u 
  482.00000p    0.         9.9326u 
  483.00000p    0.         9.9326u 
  484.00000p    0.         9.9326u 
  485.00000p    0.         9.9326u 
  486.00000p    0.         9.9326u 
  487.00000p    0.         9.9326u 
  488.00000p    0.         9.9326u 
  489.00000p    0.         9.9326u 
  490.00000p    0.         9.9326u 
  491.00000p    0.         9.9326u 
  492.00000p    0.         9.9326u 
  493.00000p    0.         9.9326u 
  494.00000p    0.         9.9326u 
  495.00000p    0.         9.9326u 
  496.00000p    0.         9.9326u 
  497.00000p    0.         9.9326u 
  498.00000p    0.         9.9326u 
  499.00000p    0.         9.9326u 
  500.00000p    0.         9.9326u 
  501.00000p    0.         9.9326u 
  502.00000p    0.         9.9326u 
  503.00000p    0.         9.9326u 
  504.00000p    0.         9.9326u 
  505.00000p    0.         9.9326u 
  506.00000p    0.         9.9326u 
  507.00000p    0.         9.9326u 
  508.00000p    0.         9.9326u 
  509.00000p    0.         9.9326u 
  510.00000p    0.         9.9326u 
  511.00000p    0.         9.9326u 
  512.00000p    0.         9.9326u 
  513.00000p    0.         9.9326u 
  514.00000p    0.         9.9326u 
  515.00000p    0.         9.9326u 
  516.00000p    0.         9.9326u 
  517.00000p    0.         9.9326u 
  518.00000p    0.         9.9326u 
  519.00000p    0.         9.9326u 
  520.00000p    0.         9.9326u 
  521.00000p    0.         9.9326u 
  522.00000p    0.         9.9326u 
  523.00000p    0.         9.9326u 
  524.00000p    0.         9.9326u 
  525.00000p    0.         9.9326u 
  526.00000p    0.         9.9326u 
  527.00000p    0.         9.9326u 
  528.00000p    0.         9.9326u 
  529.00000p    0.         9.9326u 
  530.00000p    0.         9.9326u 
  531.00000p    0.         9.9326u 
  532.00000p    0.         9.9326u 
  533.00000p    0.         9.9326u 
  534.00000p    0.         9.9326u 
  535.00000p    0.         9.9326u 
  536.00000p    0.         9.9326u 
  537.00000p    0.         9.9326u 
  538.00000p    0.         9.9326u 
  539.00000p    0.         9.9326u 
  540.00000p    0.         9.9326u 
  541.00000p    0.         9.9326u 
  542.00000p    0.         9.9326u 
  543.00000p    0.         9.9326u 
  544.00000p    0.         9.9326u 
  545.00000p    0.         9.9326u 
  546.00000p    0.         9.9326u 
  547.00000p    0.         9.9326u 
  548.00000p    0.         9.9326u 
  549.00000p    0.         9.9326u 
  550.00000p    0.         9.9326u 
  551.00000p    0.         9.9326u 
  552.00000p    0.         9.9326u 
  553.00000p    0.         9.9326u 
  554.00000p    0.         9.9326u 
  555.00000p    0.         9.9326u 
  556.00000p    0.         9.9326u 
  557.00000p    0.         9.9326u 
  558.00000p    0.         9.9326u 
  559.00000p    0.         9.9326u 
  560.00000p    0.         9.9326u 
  561.00000p    0.         9.9326u 
  562.00000p    0.         9.9326u 
  563.00000p    0.         9.9326u 
  564.00000p    0.         9.9326u 
  565.00000p    0.         9.9326u 
  566.00000p    0.         9.9326u 
  567.00000p    0.         9.9326u 
  568.00000p    0.         9.9326u 
  569.00000p    0.         9.9326u 
  570.00000p    0.         9.9326u 
  571.00000p    0.         9.9326u 
  572.00000p    0.         9.9326u 
  573.00000p    0.         9.9326u 
  574.00000p    0.         9.9326u 
  575.00000p    0.         9.9326u 
  576.00000p    0.         9.9326u 
  577.00000p    0.         9.9326u 
  578.00000p    0.         9.9326u 
  579.00000p    0.         9.9326u 
  580.00000p    0.         9.9326u 
  581.00000p    0.         9.9326u 
  582.00000p    0.         9.9326u 
  583.00000p    0.         9.9326u 
  584.00000p    0.         9.9326u 
  585.00000p    0.         9.9326u 
  586.00000p    0.         9.9326u 
  587.00000p    0.         9.9326u 
  588.00000p    0.         9.9326u 
  589.00000p    0.         9.9326u 
  590.00000p    0.         9.9326u 
  591.00000p    0.         9.9326u 
  592.00000p    0.         9.9326u 
  593.00000p    0.         9.9326u 
  594.00000p    0.         9.9326u 
  595.00000p    0.         9.9326u 
  596.00000p    0.         9.9326u 
  597.00000p    0.         9.9326u 
  598.00000p    0.         9.9326u 
  599.00000p    0.         9.9326u 
  600.00000p    0.         9.9326u 
  601.00000p    0.         9.9326u 
  602.00000p    0.         9.9326u 
  603.00000p    0.         9.9326u 
  604.00000p    0.         9.9326u 
  605.00000p    0.         9.9326u 
  606.00000p    0.         9.9326u 
  607.00000p    0.         9.9326u 
  608.00000p    0.         9.9326u 
  609.00000p    0.         9.9326u 
  610.00000p    0.         9.9326u 
  611.00000p    0.         9.9326u 
  612.00000p    0.         9.9326u 
  613.00000p    0.         9.9326u 
  614.00000p    0.         9.9326u 
  615.00000p    0.         9.9326u 
  616.00000p    0.         9.9326u 
  617.00000p    0.         9.9326u 
  618.00000p    0.         9.9326u 
  619.00000p    0.         9.9326u 
  620.00000p    0.         9.9326u 
  621.00000p    0.         9.9326u 
  622.00000p    0.         9.9326u 
  623.00000p    0.         9.9326u 
  624.00000p    0.         9.9326u 
  625.00000p    0.         9.9326u 
  626.00000p    0.         9.9326u 
  627.00000p    0.         9.9326u 
  628.00000p    0.         9.9326u 
  629.00000p    0.         9.9326u 
  630.00000p    0.         9.9326u 
  631.00000p    0.         9.9326u 
  632.00000p    0.         9.9326u 
  633.00000p    0.         9.9326u 
  634.00000p    0.         9.9326u 
  635.00000p    0.         9.9326u 
  636.00000p    0.         9.9326u 
  637.00000p    0.         9.9326u 
  638.00000p    0.         9.9326u 
  639.00000p    0.         9.9326u 
  640.00000p    0.         9.9326u 
  641.00000p    0.         9.9326u 
  642.00000p    0.         9.9326u 
  643.00000p    0.         9.9326u 
  644.00000p    0.         9.9326u 
  645.00000p    0.         9.9326u 
  646.00000p    0.         9.9326u 
  647.00000p    0.         9.9326u 
  648.00000p    0.         9.9326u 
  649.00000p    0.         9.9326u 
  650.00000p    0.         9.9326u 
  651.00000p    0.         9.9326u 
  652.00000p    0.         9.9326u 
  653.00000p    0.         9.9326u 
  654.00000p    0.         9.9326u 
  655.00000p    0.         9.9326u 
  656.00000p    0.         9.9326u 
  657.00000p    0.         9.9326u 
  658.00000p    0.         9.9326u 
  659.00000p    0.         9.9326u 
  660.00000p    0.         9.9326u 
  661.00000p    0.         9.9326u 
  662.00000p    0.         9.9326u 
  663.00000p    0.         9.9326u 
  664.00000p    0.         9.9326u 
  665.00000p    0.         9.9326u 
  666.00000p    0.         9.9326u 
  667.00000p    0.         9.9326u 
  668.00000p    0.         9.9326u 
  669.00000p    0.         9.9326u 
  670.00000p    0.         9.9326u 
  671.00000p    0.         9.9326u 
  672.00000p    0.         9.9326u 
  673.00000p    0.         9.9326u 
  674.00000p    0.         9.9326u 
  675.00000p    0.         9.9326u 
  676.00000p    0.         9.9326u 
  677.00000p    0.         9.9326u 
  678.00000p    0.         9.9326u 
  679.00000p    0.         9.9326u 
  680.00000p    0.         9.9326u 
  681.00000p    0.         9.9326u 
  682.00000p    0.         9.9326u 
  683.00000p    0.         9.9326u 
  684.00000p    0.         9.9326u 
  685.00000p    0.         9.9326u 
  686.00000p    0.         9.9326u 
  687.00000p    0.         9.9326u 
  688.00000p    0.         9.9326u 
  689.00000p    0.         9.9326u 
  690.00000p    0.         9.9326u 
  691.00000p    0.         9.9326u 
  692.00000p    0.         9.9326u 
  693.00000p    0.         9.9326u 
  694.00000p    0.         9.9326u 
  695.00000p    0.         9.9326u 
  696.00000p    0.         9.9326u 
  697.00000p    0.         9.9326u 
  698.00000p    0.         9.9326u 
  699.00000p    0.         9.9326u 
  700.00000p    0.         9.9326u 
  701.00000p    0.         9.9326u 
  702.00000p    0.         9.9326u 
  703.00000p    0.         9.9326u 
  704.00000p    0.         9.9326u 
  705.00000p    0.         9.9326u 
  706.00000p    0.         9.9326u 
  707.00000p    0.         9.9326u 
  708.00000p    0.         9.9326u 
  709.00000p    0.         9.9326u 
  710.00000p    0.         9.9326u 
  711.00000p    0.         9.9326u 
  712.00000p    0.         9.9326u 
  713.00000p    0.         9.9326u 
  714.00000p    0.         9.9326u 
  715.00000p    0.         9.9326u 
  716.00000p    0.         9.9326u 
  717.00000p    0.         9.9326u 
  718.00000p    0.         9.9326u 
  719.00000p    0.         9.9326u 
  720.00000p    0.         9.9326u 
  721.00000p    0.         9.9326u 
  722.00000p    0.         9.9326u 
  723.00000p    0.         9.9326u 
  724.00000p    0.         9.9326u 
  725.00000p    0.         9.9326u 
  726.00000p    0.         9.9326u 
  727.00000p    0.         9.9326u 
  728.00000p    0.         9.9326u 
  729.00000p    0.         9.9326u 
  730.00000p    0.         9.9326u 
  731.00000p    0.         9.9326u 
  732.00000p    0.         9.9326u 
  733.00000p    0.         9.9326u 
  734.00000p    0.         9.9326u 
  735.00000p    0.         9.9326u 
  736.00000p    0.         9.9326u 
  737.00000p    0.         9.9326u 
  738.00000p    0.         9.9326u 
  739.00000p    0.         9.9326u 
  740.00000p    0.         9.9326u 
  741.00000p    0.         9.9326u 
  742.00000p    0.         9.9326u 
  743.00000p    0.         9.9326u 
  744.00000p    0.         9.9326u 
  745.00000p    0.         9.9326u 
  746.00000p    0.         9.9326u 
  747.00000p    0.         9.9326u 
  748.00000p    0.         9.9326u 
  749.00000p    0.         9.9326u 
  750.00000p    0.         9.9326u 
  751.00000p    0.         9.9326u 
  752.00000p    0.         9.9326u 
  753.00000p    0.         9.9326u 
  754.00000p    0.         9.9326u 
  755.00000p    0.         9.9326u 
  756.00000p    0.         9.9326u 
  757.00000p    0.         9.9326u 
  758.00000p    0.         9.9326u 
  759.00000p    0.         9.9326u 
  760.00000p    0.         9.9326u 
  761.00000p    0.         9.9326u 
  762.00000p    0.         9.9326u 
  763.00000p    0.         9.9326u 
  764.00000p    0.         9.9326u 
  765.00000p    0.         9.9326u 
  766.00000p    0.         9.9326u 
  767.00000p    0.         9.9326u 
  768.00000p    0.         9.9326u 
  769.00000p    0.         9.9326u 
  770.00000p    0.         9.9326u 
  771.00000p    0.         9.9326u 
  772.00000p    0.         9.9326u 
  773.00000p    0.         9.9326u 
  774.00000p    0.         9.9326u 
  775.00000p    0.         9.9326u 
  776.00000p    0.         9.9326u 
  777.00000p    0.         9.9326u 
  778.00000p    0.         9.9326u 
  779.00000p    0.         9.9326u 
  780.00000p    0.         9.9326u 
  781.00000p    0.         9.9326u 
  782.00000p    0.         9.9326u 
  783.00000p    0.         9.9326u 
  784.00000p    0.         9.9326u 
  785.00000p    0.         9.9326u 
  786.00000p    0.         9.9326u 
  787.00000p    0.         9.9326u 
  788.00000p    0.         9.9326u 
  789.00000p    0.         9.9326u 
  790.00000p    0.         9.9326u 
  791.00000p    0.         9.9326u 
  792.00000p    0.         9.9326u 
  793.00000p    0.         9.9326u 
  794.00000p    0.         9.9326u 
  795.00000p    0.         9.9326u 
  796.00000p    0.         9.9326u 
  797.00000p    0.         9.9326u 
  798.00000p    0.         9.9326u 
  799.00000p    0.         9.9326u 
  800.00000p    0.         9.9326u 
  801.00000p    0.         9.9326u 
  802.00000p    0.         9.9326u 
  803.00000p    0.         9.9326u 
  804.00000p    0.         9.9326u 
  805.00000p    0.         9.9326u 
  806.00000p    0.         9.9326u 
  807.00000p    0.         9.9326u 
  808.00000p    0.         9.9326u 
  809.00000p    0.         9.9326u 
  810.00000p    0.         9.9326u 
  811.00000p    0.         9.9326u 
  812.00000p    0.         9.9326u 
  813.00000p    0.         9.9326u 
  814.00000p    0.         9.9326u 
  815.00000p    0.         9.9326u 
  816.00000p    0.         9.9326u 
  817.00000p    0.         9.9326u 
  818.00000p    0.         9.9326u 
  819.00000p    0.         9.9326u 
  820.00000p    0.         9.9326u 
  821.00000p    0.         9.9326u 
  822.00000p    0.         9.9326u 
  823.00000p    0.         9.9326u 
  824.00000p    0.         9.9326u 
  825.00000p    0.         9.9326u 
  826.00000p    0.         9.9326u 
  827.00000p    0.         9.9326u 
  828.00000p    0.         9.9326u 
  829.00000p    0.         9.9326u 
  830.00000p    0.         9.9326u 
  831.00000p    0.         9.9326u 
  832.00000p    0.         9.9326u 
  833.00000p    0.         9.9326u 
  834.00000p    0.         9.9326u 
  835.00000p    0.         9.9326u 
  836.00000p    0.         9.9326u 
  837.00000p    0.         9.9326u 
  838.00000p    0.         9.9326u 
  839.00000p    0.         9.9326u 
  840.00000p    0.         9.9326u 
  841.00000p    0.         9.9326u 
  842.00000p    0.         9.9326u 
  843.00000p    0.         9.9326u 
  844.00000p    0.         9.9326u 
  845.00000p    0.         9.9326u 
  846.00000p    0.         9.9326u 
  847.00000p    0.         9.9326u 
  848.00000p    0.         9.9326u 
  849.00000p    0.         9.9326u 
  850.00000p    0.         9.9326u 
  851.00000p    0.         9.9326u 
  852.00000p    0.         9.9326u 
  853.00000p    0.         9.9326u 
  854.00000p    0.         9.9326u 
  855.00000p    0.         9.9326u 
  856.00000p    0.         9.9326u 
  857.00000p    0.         9.9326u 
  858.00000p    0.         9.9326u 
  859.00000p    0.         9.9326u 
  860.00000p    0.         9.9326u 
  861.00000p    0.         9.9326u 
  862.00000p    0.         9.9326u 
  863.00000p    0.         9.9326u 
  864.00000p    0.         9.9326u 
  865.00000p    0.         9.9326u 
  866.00000p    0.         9.9326u 
  867.00000p    0.         9.9326u 
  868.00000p    0.         9.9326u 
  869.00000p    0.         9.9326u 
  870.00000p    0.         9.9326u 
  871.00000p    0.         9.9326u 
  872.00000p    0.         9.9326u 
  873.00000p    0.         9.9326u 
  874.00000p    0.         9.9326u 
  875.00000p    0.         9.9326u 
  876.00000p    0.         9.9326u 
  877.00000p    0.         9.9326u 
  878.00000p    0.         9.9326u 
  879.00000p    0.         9.9326u 
  880.00000p    0.         9.9326u 
  881.00000p    0.         9.9326u 
  882.00000p    0.         9.9326u 
  883.00000p    0.         9.9326u 
  884.00000p    0.         9.9326u 
  885.00000p    0.         9.9326u 
  886.00000p    0.         9.9326u 
  887.00000p    0.         9.9326u 
  888.00000p    0.         9.9326u 
  889.00000p    0.         9.9326u 
  890.00000p    0.         9.9326u 
  891.00000p    0.         9.9326u 
  892.00000p    0.         9.9326u 
  893.00000p    0.         9.9326u 
  894.00000p    0.         9.9326u 
  895.00000p    0.         9.9326u 
  896.00000p    0.         9.9326u 
  897.00000p    0.         9.9326u 
  898.00000p    0.         9.9326u 
  899.00000p    0.         9.9326u 
  900.00000p    0.         9.9326u 
  901.00000p    0.         9.9326u 
  902.00000p    0.         9.9326u 
  903.00000p    0.         9.9326u 
  904.00000p    0.         9.9326u 
  905.00000p    0.         9.9326u 
  906.00000p    0.         9.9326u 
  907.00000p    0.         9.9326u 
  908.00000p    0.         9.9326u 
  909.00000p    0.         9.9326u 
  910.00000p    0.         9.9326u 
  911.00000p    0.         9.9326u 
  912.00000p    0.         9.9326u 
  913.00000p    0.         9.9326u 
  914.00000p    0.         9.9326u 
  915.00000p    0.         9.9326u 
  916.00000p    0.         9.9326u 
  917.00000p    0.         9.9326u 
  918.00000p    0.         9.9326u 
  919.00000p    0.         9.9326u 
  920.00000p    0.         9.9326u 
  921.00000p    0.         9.9326u 
  922.00000p    0.         9.9326u 
  923.00000p    0.         9.9326u 
  924.00000p    0.         9.9326u 
  925.00000p    0.         9.9326u 
  926.00000p    0.         9.9326u 
  927.00000p    0.         9.9326u 
  928.00000p    0.         9.9326u 
  929.00000p    0.         9.9326u 
  930.00000p    0.         9.9326u 
  931.00000p    0.         9.9326u 
  932.00000p    0.         9.9326u 
  933.00000p    0.         9.9326u 
  934.00000p    0.         9.9326u 
  935.00000p    0.         9.9326u 
  936.00000p    0.         9.9326u 
  937.00000p    0.         9.9326u 
  938.00000p    0.         9.9326u 
  939.00000p    0.         9.9326u 
  940.00000p    0.         9.9326u 
  941.00000p    0.         9.9326u 
  942.00000p    0.         9.9326u 
  943.00000p    0.         9.9326u 
  944.00000p    0.         9.9326u 
  945.00000p    0.         9.9326u 
  946.00000p    0.         9.9326u 
  947.00000p    0.         9.9326u 
  948.00000p    0.         9.9326u 
  949.00000p    0.         9.9326u 
  950.00000p    0.         9.9326u 
  951.00000p    0.         9.9326u 
  952.00000p    0.         9.9326u 
  953.00000p    0.         9.9326u 
  954.00000p    0.         9.9326u 
  955.00000p    0.         9.9326u 
  956.00000p    0.         9.9326u 
  957.00000p    0.         9.9326u 
  958.00000p    0.         9.9326u 
  959.00000p    0.         9.9326u 
  960.00000p    0.         9.9326u 
  961.00000p    0.         9.9326u 
  962.00000p    0.         9.9326u 
  963.00000p    0.         9.9326u 
  964.00000p    0.         9.9326u 
  965.00000p    0.         9.9326u 
  966.00000p    0.         9.9326u 
  967.00000p    0.         9.9326u 
  968.00000p    0.         9.9326u 
  969.00000p    0.         9.9326u 
  970.00000p    0.         9.9326u 
  971.00000p    0.         9.9326u 
  972.00000p    0.         9.9326u 
  973.00000p    0.         9.9326u 
  974.00000p    0.         9.9326u 
  975.00000p    0.         9.9326u 
  976.00000p    0.         9.9326u 
  977.00000p    0.         9.9326u 
  978.00000p    0.         9.9326u 
  979.00000p    0.         9.9326u 
  980.00000p    0.         9.9326u 
  981.00000p    0.         9.9326u 
  982.00000p    0.         9.9326u 
  983.00000p    0.         9.9326u 
  984.00000p    0.         9.9326u 
  985.00000p    0.         9.9326u 
  986.00000p    0.         9.9326u 
  987.00000p    0.         9.9326u 
  988.00000p    0.         9.9326u 
  989.00000p    0.         9.9326u 
  990.00000p    0.         9.9326u 
  991.00000p    0.         9.9326u 
  992.00000p    0.         9.9326u 
  993.00000p    0.         9.9326u 
  994.00000p    0.         9.9326u 
  995.00000p    0.         9.9326u 
  996.00000p    0.         9.9326u 
  997.00000p    0.         9.9326u 
  998.00000p    0.         9.9326u 
  999.00000p    0.         9.9326u 
    1.00000n    0.         9.9326u 
    1.00100n    0.         9.9326u 
    1.00200n    0.         9.9326u 
    1.00300n    0.         9.9326u 
    1.00400n    0.         9.9326u 
    1.00500n    0.         9.9326u 
    1.00600n    0.         9.9326u 
    1.00700n    0.         9.9326u 
    1.00800n    0.         9.9326u 
    1.00900n    0.         9.9326u 
    1.01000n    0.         9.9326u 
    1.01100n    0.         9.9326u 
    1.01200n    0.         9.9326u 
    1.01300n    0.         9.9326u 
    1.01400n    0.         9.9326u 
    1.01500n    0.         9.9326u 
    1.01600n    0.         9.9326u 
    1.01700n    0.         9.9326u 
    1.01800n    0.         9.9326u 
    1.01900n    0.         9.9326u 
    1.02000n    0.         9.9326u 
    1.02100n    0.         9.9326u 
    1.02200n    0.         9.9326u 
    1.02300n    0.         9.9326u 
    1.02400n    0.         9.9326u 
    1.02500n    0.         9.9326u 
    1.02600n    0.         9.9326u 
    1.02700n    0.         9.9326u 
    1.02800n    0.         9.9326u 
    1.02900n    0.         9.9326u 
    1.03000n    0.         9.9326u 
    1.03100n    0.         9.9326u 
    1.03200n    0.         9.9326u 
    1.03300n    0.         9.9326u 
    1.03400n    0.         9.9326u 
    1.03500n    0.         9.9326u 
    1.03600n    0.         9.9326u 
    1.03700n    0.         9.9326u 
    1.03800n    0.         9.9326u 
    1.03900n    0.         9.9326u 
    1.04000n    0.         9.9326u 
    1.04100n    0.         9.9326u 
    1.04200n    0.         9.9326u 
    1.04300n    0.         9.9326u 
    1.04400n    0.         9.9326u 
    1.04500n    0.         9.9326u 
    1.04600n    0.         9.9326u 
    1.04700n    0.         9.9326u 
    1.04800n    0.         9.9326u 
    1.04900n    0.         9.9326u 
    1.05000n    0.         9.9326u 
    1.05100n    0.         9.9326u 
    1.05200n    0.         9.9326u 
    1.05300n    0.         9.9326u 
    1.05400n    0.         9.9326u 
    1.05500n    0.         9.9326u 
    1.05600n    0.         9.9326u 
    1.05700n    0.         9.9326u 
    1.05800n    0.         9.9326u 
    1.05900n    0.         9.9326u 
    1.06000n    0.         9.9326u 
    1.06100n    0.         9.9326u 
    1.06200n    0.         9.9326u 
    1.06300n    0.         9.9326u 
    1.06400n    0.         9.9326u 
    1.06500n    0.         9.9326u 
    1.06600n    0.         9.9326u 
    1.06700n    0.         9.9326u 
    1.06800n    0.         9.9326u 
    1.06900n    0.         9.9326u 
    1.07000n    0.         9.9326u 
    1.07100n    0.         9.9326u 
    1.07200n    0.         9.9326u 
    1.07300n    0.         9.9326u 
    1.07400n    0.         9.9326u 
    1.07500n    0.         9.9326u 
    1.07600n    0.         9.9326u 
    1.07700n    0.         9.9326u 
    1.07800n    0.         9.9326u 
    1.07900n    0.         9.9326u 
    1.08000n    0.         9.9326u 
    1.08100n    0.         9.9326u 
    1.08200n    0.         9.9326u 
    1.08300n    0.         9.9326u 
    1.08400n    0.         9.9326u 
    1.08500n    0.         9.9326u 
    1.08600n    0.         9.9326u 
    1.08700n    0.         9.9326u 
    1.08800n    0.         9.9326u 
    1.08900n    0.         9.9326u 
    1.09000n    0.         9.9326u 
    1.09100n    0.         9.9326u 
    1.09200n    0.         9.9326u 
    1.09300n    0.         9.9326u 
    1.09400n    0.         9.9326u 
    1.09500n    0.         9.9326u 
    1.09600n    0.         9.9326u 
    1.09700n    0.         9.9326u 
    1.09800n    0.         9.9326u 
    1.09900n    0.         9.9326u 
    1.10000n    0.         9.9326u 
    1.10100n    0.         9.9326u 
    1.10200n    0.         9.9326u 
    1.10300n    0.         9.9326u 
    1.10400n    0.         9.9326u 
    1.10500n    0.         9.9326u 
    1.10600n    0.         9.9326u 
    1.10700n    0.         9.9326u 
    1.10800n    0.         9.9326u 
    1.10900n    0.         9.9326u 
    1.11000n    0.         9.9326u 
    1.11100n    0.         9.9326u 
    1.11200n    0.         9.9326u 
    1.11300n    0.         9.9326u 
    1.11400n    0.         9.9326u 
    1.11500n    0.         9.9326u 
    1.11600n    0.         9.9326u 
    1.11700n    0.         9.9326u 
    1.11800n    0.         9.9326u 
    1.11900n    0.         9.9326u 
    1.12000n    0.         9.9326u 
    1.12100n    0.         9.9326u 
    1.12200n    0.         9.9326u 
    1.12300n    0.         9.9326u 
    1.12400n    0.         9.9326u 
    1.12500n    0.         9.9326u 
    1.12600n    0.         9.9326u 
    1.12700n    0.         9.9326u 
    1.12800n    0.         9.9326u 
    1.12900n    0.         9.9326u 
    1.13000n    0.         9.9326u 
    1.13100n    0.         9.9326u 
    1.13200n    0.         9.9326u 
    1.13300n    0.         9.9326u 
    1.13400n    0.         9.9326u 
    1.13500n    0.         9.9326u 
    1.13600n    0.         9.9326u 
    1.13700n    0.         9.9326u 
    1.13800n    0.         9.9326u 
    1.13900n    0.         9.9326u 
    1.14000n    0.         9.9326u 
    1.14100n    0.         9.9326u 
    1.14200n    0.         9.9326u 
    1.14300n    0.         9.9326u 
    1.14400n    0.         9.9326u 
    1.14500n    0.         9.9326u 
    1.14600n    0.         9.9326u 
    1.14700n    0.         9.9326u 
    1.14800n    0.         9.9326u 
    1.14900n    0.         9.9326u 
    1.15000n    0.         9.9326u 
    1.15100n    0.         9.9326u 
    1.15200n    0.         9.9326u 
    1.15300n    0.         9.9326u 
    1.15400n    0.         9.9326u 
    1.15500n    0.         9.9326u 
    1.15600n    0.         9.9326u 
    1.15700n    0.         9.9326u 
    1.15800n    0.         9.9326u 
    1.15900n    0.         9.9326u 
    1.16000n    0.         9.9326u 
    1.16100n    0.         9.9326u 
    1.16200n    0.         9.9326u 
    1.16300n    0.         9.9326u 
    1.16400n    0.         9.9326u 
    1.16500n    0.         9.9326u 
    1.16600n    0.         9.9326u 
    1.16700n    0.         9.9326u 
    1.16800n    0.         9.9326u 
    1.16900n    0.         9.9326u 
    1.17000n    0.         9.9326u 
    1.17100n    0.         9.9326u 
    1.17200n    0.         9.9326u 
    1.17300n    0.         9.9326u 
    1.17400n    0.         9.9326u 
    1.17500n    0.         9.9326u 
    1.17600n    0.         9.9326u 
    1.17700n    0.         9.9326u 
    1.17800n    0.         9.9326u 
    1.17900n    0.         9.9326u 
    1.18000n    0.         9.9326u 
    1.18100n    0.         9.9326u 
    1.18200n    0.         9.9326u 
    1.18300n    0.         9.9326u 
    1.18400n    0.         9.9326u 
    1.18500n    0.         9.9326u 
    1.18600n    0.         9.9326u 
    1.18700n    0.         9.9326u 
    1.18800n    0.         9.9326u 
    1.18900n    0.         9.9326u 
    1.19000n    0.         9.9326u 
    1.19100n    0.         9.9326u 
    1.19200n    0.         9.9326u 
    1.19300n    0.         9.9326u 
    1.19400n    0.         9.9326u 
    1.19500n    0.         9.9326u 
    1.19600n    0.         9.9326u 
    1.19700n    0.         9.9326u 
    1.19800n    0.         9.9326u 
    1.19900n    0.         9.9326u 
    1.20000n    0.         9.9326u 
    1.20100n    0.         9.9326u 
    1.20200n    0.         9.9326u 
    1.20300n    0.         9.9326u 
    1.20400n    0.         9.9326u 
    1.20500n    0.         9.9326u 
    1.20600n    0.         9.9326u 
    1.20700n    0.         9.9326u 
    1.20800n    0.         9.9326u 
    1.20900n    0.         9.9326u 
    1.21000n    0.         9.9326u 
    1.21100n    0.         9.9326u 
    1.21200n    0.         9.9326u 
    1.21300n    0.         9.9326u 
    1.21400n    0.         9.9326u 
    1.21500n    0.         9.9326u 
    1.21600n    0.         9.9326u 
    1.21700n    0.         9.9326u 
    1.21800n    0.         9.9326u 
    1.21900n    0.         9.9326u 
    1.22000n    0.         9.9326u 
    1.22100n    0.         9.9326u 
    1.22200n    0.         9.9326u 
    1.22300n    0.         9.9326u 
    1.22400n    0.         9.9326u 
    1.22500n    0.         9.9326u 
    1.22600n    0.         9.9326u 
    1.22700n    0.         9.9326u 
    1.22800n    0.         9.9326u 
    1.22900n    0.         9.9326u 
    1.23000n    0.         9.9326u 
    1.23100n    0.         9.9326u 
    1.23200n    0.         9.9326u 
    1.23300n    0.         9.9326u 
    1.23400n    0.         9.9326u 
    1.23500n    0.         9.9326u 
    1.23600n    0.         9.9326u 
    1.23700n    0.         9.9326u 
    1.23800n    0.         9.9326u 
    1.23900n    0.         9.9326u 
    1.24000n    0.         9.9326u 
    1.24100n    0.         9.9326u 
    1.24200n    0.         9.9326u 
    1.24300n    0.         9.9326u 
    1.24400n    0.         9.9326u 
    1.24500n    0.         9.9326u 
    1.24600n    0.         9.9326u 
    1.24700n    0.         9.9326u 
    1.24800n    0.         9.9326u 
    1.24900n    0.         9.9326u 
    1.25000n    0.         9.9326u 
    1.25100n    0.         9.9326u 
    1.25200n    0.         9.9326u 
    1.25300n    0.         9.9326u 
    1.25400n    0.         9.9326u 
    1.25500n    0.         9.9326u 
    1.25600n    0.         9.9326u 
    1.25700n    0.         9.9326u 
    1.25800n    0.         9.9326u 
    1.25900n    0.         9.9326u 
    1.26000n    0.         9.9326u 
    1.26100n    0.         9.9326u 
    1.26200n    0.         9.9326u 
    1.26300n    0.         9.9326u 
    1.26400n    0.         9.9326u 
    1.26500n    0.         9.9326u 
    1.26600n    0.         9.9326u 
    1.26700n    0.         9.9326u 
    1.26800n    0.         9.9326u 
    1.26900n    0.         9.9326u 
    1.27000n    0.         9.9326u 
    1.27100n    0.         9.9326u 
    1.27200n    0.         9.9326u 
    1.27300n    0.         9.9326u 
    1.27400n    0.         9.9326u 
    1.27500n    0.         9.9326u 
    1.27600n    0.         9.9326u 
    1.27700n    0.         9.9326u 
    1.27800n    0.         9.9326u 
    1.27900n    0.         9.9326u 
    1.28000n    0.         9.9326u 
    1.28100n    0.         9.9326u 
    1.28200n    0.         9.9326u 
    1.28300n    0.         9.9326u 
    1.28400n    0.         9.9326u 
    1.28500n    0.         9.9326u 
    1.28600n    0.         9.9326u 
    1.28700n    0.         9.9326u 
    1.28800n    0.         9.9326u 
    1.28900n    0.         9.9326u 
    1.29000n    0.         9.9326u 
    1.29100n    0.         9.9326u 
    1.29200n    0.         9.9326u 
    1.29300n    0.         9.9326u 
    1.29400n    0.         9.9326u 
    1.29500n    0.         9.9326u 
    1.29600n    0.         9.9326u 
    1.29700n    0.         9.9326u 
    1.29800n    0.         9.9326u 
    1.29900n    0.         9.9326u 
    1.30000n    0.         9.9326u 
    1.30100n    0.         9.9326u 
    1.30200n    0.         9.9326u 
    1.30300n    0.         9.9326u 
    1.30400n    0.         9.9326u 
    1.30500n    0.         9.9326u 
    1.30600n    0.         9.9326u 
    1.30700n    0.         9.9326u 
    1.30800n    0.         9.9326u 
    1.30900n    0.         9.9326u 
    1.31000n    0.         9.9326u 
    1.31100n    0.         9.9326u 
    1.31200n    0.         9.9326u 
    1.31300n    0.         9.9326u 
    1.31400n    0.         9.9326u 
    1.31500n    0.         9.9326u 
    1.31600n    0.         9.9326u 
    1.31700n    0.         9.9326u 
    1.31800n    0.         9.9326u 
    1.31900n    0.         9.9326u 
    1.32000n    0.         9.9326u 
    1.32100n    0.         9.9326u 
    1.32200n    0.         9.9326u 
    1.32300n    0.         9.9326u 
    1.32400n    0.         9.9326u 
    1.32500n    0.         9.9326u 
    1.32600n    0.         9.9326u 
    1.32700n    0.         9.9326u 
    1.32800n    0.         9.9326u 
    1.32900n    0.         9.9326u 
    1.33000n    0.         9.9326u 
    1.33100n    0.         9.9326u 
    1.33200n    0.         9.9326u 
    1.33300n    0.         9.9326u 
    1.33400n    0.         9.9326u 
    1.33500n    0.         9.9326u 
    1.33600n    0.         9.9326u 
    1.33700n    0.         9.9326u 
    1.33800n    0.         9.9326u 
    1.33900n    0.         9.9326u 
    1.34000n    0.         9.9326u 
    1.34100n    0.         9.9326u 
    1.34200n    0.         9.9326u 
    1.34300n    0.         9.9326u 
    1.34400n    0.         9.9326u 
    1.34500n    0.         9.9326u 
    1.34600n    0.         9.9326u 
    1.34700n    0.         9.9326u 
    1.34800n    0.         9.9326u 
    1.34900n    0.         9.9326u 
    1.35000n    0.         9.9326u 
    1.35100n    0.         9.9326u 
    1.35200n    0.         9.9326u 
    1.35300n    0.         9.9326u 
    1.35400n    0.         9.9326u 
    1.35500n    0.         9.9326u 
    1.35600n    0.         9.9326u 
    1.35700n    0.         9.9326u 
    1.35800n    0.         9.9326u 
    1.35900n    0.         9.9326u 
    1.36000n    0.         9.9326u 
    1.36100n    0.         9.9326u 
    1.36200n    0.         9.9326u 
    1.36300n    0.         9.9326u 
    1.36400n    0.         9.9326u 
    1.36500n    0.         9.9326u 
    1.36600n    0.         9.9326u 
    1.36700n    0.         9.9326u 
    1.36800n    0.         9.9326u 
    1.36900n    0.         9.9326u 
    1.37000n    0.         9.9326u 
    1.37100n    0.         9.9326u 
    1.37200n    0.         9.9326u 
    1.37300n    0.         9.9326u 
    1.37400n    0.         9.9326u 
    1.37500n    0.         9.9326u 
    1.37600n    0.         9.9326u 
    1.37700n    0.         9.9326u 
    1.37800n    0.         9.9326u 
    1.37900n    0.         9.9326u 
    1.38000n    0.         9.9326u 
    1.38100n    0.         9.9326u 
    1.38200n    0.         9.9326u 
    1.38300n    0.         9.9326u 
    1.38400n    0.         9.9326u 
    1.38500n    0.         9.9326u 
    1.38600n    0.         9.9326u 
    1.38700n    0.         9.9326u 
    1.38800n    0.         9.9326u 
    1.38900n    0.         9.9326u 
    1.39000n    0.         9.9326u 
    1.39100n    0.         9.9326u 
    1.39200n    0.         9.9326u 
    1.39300n    0.         9.9326u 
    1.39400n    0.         9.9326u 
    1.39500n    0.         9.9326u 
    1.39600n    0.         9.9326u 
    1.39700n    0.         9.9326u 
    1.39800n    0.         9.9326u 
    1.39900n    0.         9.9326u 
    1.40000n    0.         9.9326u 
    1.40100n    0.         9.9326u 
    1.40200n    0.         9.9326u 
    1.40300n    0.         9.9326u 
    1.40400n    0.         9.9326u 
    1.40500n    0.         9.9326u 
    1.40600n    0.         9.9326u 
    1.40700n    0.         9.9326u 
    1.40800n    0.         9.9326u 
    1.40900n    0.         9.9326u 
    1.41000n    0.         9.9326u 
    1.41100n    0.         9.9326u 
    1.41200n    0.         9.9326u 
    1.41300n    0.         9.9326u 
    1.41400n    0.         9.9326u 
    1.41500n    0.         9.9326u 
    1.41600n    0.         9.9326u 
    1.41700n    0.         9.9326u 
    1.41800n    0.         9.9326u 
    1.41900n    0.         9.9326u 
    1.42000n    0.         9.9326u 
    1.42100n    0.         9.9326u 
    1.42200n    0.         9.9326u 
    1.42300n    0.         9.9326u 
    1.42400n    0.         9.9326u 
    1.42500n    0.         9.9326u 
    1.42600n    0.         9.9326u 
    1.42700n    0.         9.9326u 
    1.42800n    0.         9.9326u 
    1.42900n    0.         9.9326u 
    1.43000n    0.         9.9326u 
    1.43100n    0.         9.9326u 
    1.43200n    0.         9.9326u 
    1.43300n    0.         9.9326u 
    1.43400n    0.         9.9326u 
    1.43500n    0.         9.9326u 
    1.43600n    0.         9.9326u 
    1.43700n    0.         9.9326u 
    1.43800n    0.         9.9326u 
    1.43900n    0.         9.9326u 
    1.44000n    0.         9.9326u 
    1.44100n    0.         9.9326u 
    1.44200n    0.         9.9326u 
    1.44300n    0.         9.9326u 
    1.44400n    0.         9.9326u 
    1.44500n    0.         9.9326u 
    1.44600n    0.         9.9326u 
    1.44700n    0.         9.9326u 
    1.44800n    0.         9.9326u 
    1.44900n    0.         9.9326u 
    1.45000n    0.         9.9326u 
    1.45100n    0.         9.9326u 
    1.45200n    0.         9.9326u 
    1.45300n    0.         9.9326u 
    1.45400n    0.         9.9326u 
    1.45500n    0.         9.9326u 
    1.45600n    0.         9.9326u 
    1.45700n    0.         9.9326u 
    1.45800n    0.         9.9326u 
    1.45900n    0.         9.9326u 
    1.46000n    0.         9.9326u 
    1.46100n    0.         9.9326u 
    1.46200n    0.         9.9326u 
    1.46300n    0.         9.9326u 
    1.46400n    0.         9.9326u 
    1.46500n    0.         9.9326u 
    1.46600n    0.         9.9326u 
    1.46700n    0.         9.9326u 
    1.46800n    0.         9.9326u 
    1.46900n    0.         9.9326u 
    1.47000n    0.         9.9326u 
    1.47100n    0.         9.9326u 
    1.47200n    0.         9.9326u 
    1.47300n    0.         9.9326u 
    1.47400n    0.         9.9326u 
    1.47500n    0.         9.9326u 
    1.47600n    0.         9.9326u 
    1.47700n    0.         9.9326u 
    1.47800n    0.         9.9326u 
    1.47900n    0.         9.9326u 
    1.48000n    0.         9.9326u 
    1.48100n    0.         9.9326u 
    1.48200n    0.         9.9326u 
    1.48300n    0.         9.9326u 
    1.48400n    0.         9.9326u 
    1.48500n    0.         9.9326u 
    1.48600n    0.         9.9326u 
    1.48700n    0.         9.9326u 
    1.48800n    0.         9.9326u 
    1.48900n    0.         9.9326u 
    1.49000n    0.         9.9326u 
    1.49100n    0.         9.9326u 
    1.49200n    0.         9.9326u 
    1.49300n    0.         9.9326u 
    1.49400n    0.         9.9326u 
    1.49500n    0.         9.9326u 
    1.49600n    0.         9.9326u 
    1.49700n    0.         9.9326u 
    1.49800n    0.         9.9326u 
    1.49900n    0.         9.9326u 
    1.50000n    0.         9.9326u 
    1.50100n    0.         9.9326u 
    1.50200n    0.         9.9326u 
    1.50300n    0.         9.9326u 
    1.50400n    0.         9.9326u 
    1.50500n    0.         9.9326u 
    1.50600n    0.         9.9326u 
    1.50700n    0.         9.9326u 
    1.50800n    0.         9.9326u 
    1.50900n    0.         9.9326u 
    1.51000n    0.         9.9326u 
    1.51100n    0.         9.9326u 
    1.51200n    0.         9.9326u 
    1.51300n    0.         9.9326u 
    1.51400n    0.         9.9326u 
    1.51500n    0.         9.9326u 
    1.51600n    0.         9.9326u 
    1.51700n    0.         9.9326u 
    1.51800n    0.         9.9326u 
    1.51900n    0.         9.9326u 
    1.52000n    0.         9.9326u 
    1.52100n    0.         9.9326u 
    1.52200n    0.         9.9326u 
    1.52300n    0.         9.9326u 
    1.52400n    0.         9.9326u 
    1.52500n    0.         9.9326u 
    1.52600n    0.         9.9326u 
    1.52700n    0.         9.9326u 
    1.52800n    0.         9.9326u 
    1.52900n    0.         9.9326u 
    1.53000n    0.         9.9326u 
    1.53100n    0.         9.9326u 
    1.53200n    0.         9.9326u 
    1.53300n    0.         9.9326u 
    1.53400n    0.         9.9326u 
    1.53500n    0.         9.9326u 
    1.53600n    0.         9.9326u 
    1.53700n    0.         9.9326u 
    1.53800n    0.         9.9326u 
    1.53900n    0.         9.9326u 
    1.54000n    0.         9.9326u 
    1.54100n    0.         9.9326u 
    1.54200n    0.         9.9326u 
    1.54300n    0.         9.9326u 
    1.54400n    0.         9.9326u 
    1.54500n    0.         9.9326u 
    1.54600n    0.         9.9326u 
    1.54700n    0.         9.9326u 
    1.54800n    0.         9.9326u 
    1.54900n    0.         9.9326u 
    1.55000n    0.         9.9326u 
    1.55100n    0.         9.9326u 
    1.55200n    0.         9.9326u 
    1.55300n    0.         9.9326u 
    1.55400n    0.         9.9326u 
    1.55500n    0.         9.9326u 
    1.55600n    0.         9.9326u 
    1.55700n    0.         9.9326u 
    1.55800n    0.         9.9326u 
    1.55900n    0.         9.9326u 
    1.56000n    0.         9.9326u 
    1.56100n    0.         9.9326u 
    1.56200n    0.         9.9326u 
    1.56300n    0.         9.9326u 
    1.56400n    0.         9.9326u 
    1.56500n    0.         9.9326u 
    1.56600n    0.         9.9326u 
    1.56700n    0.         9.9326u 
    1.56800n    0.         9.9326u 
    1.56900n    0.         9.9326u 
    1.57000n    0.         9.9326u 
    1.57100n    0.         9.9326u 
    1.57200n    0.         9.9326u 
    1.57300n    0.         9.9326u 
    1.57400n    0.         9.9326u 
    1.57500n    0.         9.9326u 
    1.57600n    0.         9.9326u 
    1.57700n    0.         9.9326u 
    1.57800n    0.         9.9326u 
    1.57900n    0.         9.9326u 
    1.58000n    0.         9.9326u 
    1.58100n    0.         9.9326u 
    1.58200n    0.         9.9326u 
    1.58300n    0.         9.9326u 
    1.58400n    0.         9.9326u 
    1.58500n    0.         9.9326u 
    1.58600n    0.         9.9326u 
    1.58700n    0.         9.9326u 
    1.58800n    0.         9.9326u 
    1.58900n    0.         9.9326u 
    1.59000n    0.         9.9326u 
    1.59100n    0.         9.9326u 
    1.59200n    0.         9.9326u 
    1.59300n    0.         9.9326u 
    1.59400n    0.         9.9326u 
    1.59500n    0.         9.9326u 
    1.59600n    0.         9.9326u 
    1.59700n    0.         9.9326u 
    1.59800n    0.         9.9326u 
    1.59900n    0.         9.9326u 
    1.60000n    0.         9.9326u 
    1.60100n    0.         9.9326u 
    1.60200n    0.         9.9326u 
    1.60300n    0.         9.9326u 
    1.60400n    0.         9.9326u 
    1.60500n    0.         9.9326u 
    1.60600n    0.         9.9326u 
    1.60700n    0.         9.9326u 
    1.60800n    0.         9.9326u 
    1.60900n    0.         9.9326u 
    1.61000n    0.         9.9326u 
    1.61100n    0.         9.9326u 
    1.61200n    0.         9.9326u 
    1.61300n    0.         9.9326u 
    1.61400n    0.         9.9326u 
    1.61500n    0.         9.9326u 
    1.61600n    0.         9.9326u 
    1.61700n    0.         9.9326u 
    1.61800n    0.         9.9326u 
    1.61900n    0.         9.9326u 
    1.62000n    0.         9.9326u 
    1.62100n    0.         9.9326u 
    1.62200n    0.         9.9326u 
    1.62300n    0.         9.9326u 
    1.62400n    0.         9.9326u 
    1.62500n    0.         9.9326u 
    1.62600n    0.         9.9326u 
    1.62700n    0.         9.9326u 
    1.62800n    0.         9.9326u 
    1.62900n    0.         9.9326u 
    1.63000n    0.         9.9326u 
    1.63100n    0.         9.9326u 
    1.63200n    0.         9.9326u 
    1.63300n    0.         9.9326u 
    1.63400n    0.         9.9326u 
    1.63500n    0.         9.9326u 
    1.63600n    0.         9.9326u 
    1.63700n    0.         9.9326u 
    1.63800n    0.         9.9326u 
    1.63900n    0.         9.9326u 
    1.64000n    0.         9.9326u 
    1.64100n    0.         9.9326u 
    1.64200n    0.         9.9326u 
    1.64300n    0.         9.9326u 
    1.64400n    0.         9.9326u 
    1.64500n    0.         9.9326u 
    1.64600n    0.         9.9326u 
    1.64700n    0.         9.9326u 
    1.64800n    0.         9.9326u 
    1.64900n    0.         9.9326u 
    1.65000n    0.         9.9326u 
    1.65100n    0.         9.9326u 
    1.65200n    0.         9.9326u 
    1.65300n    0.         9.9326u 
    1.65400n    0.         9.9326u 
    1.65500n    0.         9.9326u 
    1.65600n    0.         9.9326u 
    1.65700n    0.         9.9326u 
    1.65800n    0.         9.9326u 
    1.65900n    0.         9.9326u 
    1.66000n    0.         9.9326u 
    1.66100n    0.         9.9326u 
    1.66200n    0.         9.9326u 
    1.66300n    0.         9.9326u 
    1.66400n    0.         9.9326u 
    1.66500n    0.         9.9326u 
    1.66600n    0.         9.9326u 
    1.66700n    0.         9.9326u 
    1.66800n    0.         9.9326u 
    1.66900n    0.         9.9326u 
    1.67000n    0.         9.9326u 
    1.67100n    0.         9.9326u 
    1.67200n    0.         9.9326u 
    1.67300n    0.         9.9326u 
    1.67400n    0.         9.9326u 
    1.67500n    0.         9.9326u 
    1.67600n    0.         9.9326u 
    1.67700n    0.         9.9326u 
    1.67800n    0.         9.9326u 
    1.67900n    0.         9.9326u 
    1.68000n    0.         9.9326u 
    1.68100n    0.         9.9326u 
    1.68200n    0.         9.9326u 
    1.68300n    0.         9.9326u 
    1.68400n    0.         9.9326u 
    1.68500n    0.         9.9326u 
    1.68600n    0.         9.9326u 
    1.68700n    0.         9.9326u 
    1.68800n    0.         9.9326u 
    1.68900n    0.         9.9326u 
    1.69000n    0.         9.9326u 
    1.69100n    0.         9.9326u 
    1.69200n    0.         9.9326u 
    1.69300n    0.         9.9326u 
    1.69400n    0.         9.9326u 
    1.69500n    0.         9.9326u 
    1.69600n    0.         9.9326u 
    1.69700n    0.         9.9326u 
    1.69800n    0.         9.9326u 
    1.69900n    0.         9.9326u 
    1.70000n    0.         9.9326u 
    1.70100n    0.         9.9326u 
    1.70200n    0.         9.9326u 
    1.70300n    0.         9.9326u 
    1.70400n    0.         9.9326u 
    1.70500n    0.         9.9326u 
    1.70600n    0.         9.9326u 
    1.70700n    0.         9.9326u 
    1.70800n    0.         9.9326u 
    1.70900n    0.         9.9326u 
    1.71000n    0.         9.9326u 
    1.71100n    0.         9.9326u 
    1.71200n    0.         9.9326u 
    1.71300n    0.         9.9326u 
    1.71400n    0.         9.9326u 
    1.71500n    0.         9.9326u 
    1.71600n    0.         9.9326u 
    1.71700n    0.         9.9326u 
    1.71800n    0.         9.9326u 
    1.71900n    0.         9.9326u 
    1.72000n    0.         9.9326u 
    1.72100n    0.         9.9326u 
    1.72200n    0.         9.9326u 
    1.72300n    0.         9.9326u 
    1.72400n    0.         9.9326u 
    1.72500n    0.         9.9326u 
    1.72600n    0.         9.9326u 
    1.72700n    0.         9.9326u 
    1.72800n    0.         9.9326u 
    1.72900n    0.         9.9326u 
    1.73000n    0.         9.9326u 
    1.73100n    0.         9.9326u 
    1.73200n    0.         9.9326u 
    1.73300n    0.         9.9326u 
    1.73400n    0.         9.9326u 
    1.73500n    0.         9.9326u 
    1.73600n    0.         9.9326u 
    1.73700n    0.         9.9326u 
    1.73800n    0.         9.9326u 
    1.73900n    0.         9.9326u 
    1.74000n    0.         9.9326u 
    1.74100n    0.         9.9326u 
    1.74200n    0.         9.9326u 
    1.74300n    0.         9.9326u 
    1.74400n    0.         9.9326u 
    1.74500n    0.         9.9326u 
    1.74600n    0.         9.9326u 
    1.74700n    0.         9.9326u 
    1.74800n    0.         9.9326u 
    1.74900n    0.         9.9326u 
    1.75000n    0.         9.9326u 
    1.75100n    0.         9.9326u 
    1.75200n    0.         9.9326u 
    1.75300n    0.         9.9326u 
    1.75400n    0.         9.9326u 
    1.75500n    0.         9.9326u 
    1.75600n    0.         9.9326u 
    1.75700n    0.         9.9326u 
    1.75800n    0.         9.9326u 
    1.75900n    0.         9.9326u 
    1.76000n    0.         9.9326u 
    1.76100n    0.         9.9326u 
    1.76200n    0.         9.9326u 
    1.76300n    0.         9.9326u 
    1.76400n    0.         9.9326u 
    1.76500n    0.         9.9326u 
    1.76600n    0.         9.9326u 
    1.76700n    0.         9.9326u 
    1.76800n    0.         9.9326u 
    1.76900n    0.         9.9326u 
    1.77000n    0.         9.9326u 
    1.77100n    0.         9.9326u 
    1.77200n    0.         9.9326u 
    1.77300n    0.         9.9326u 
    1.77400n    0.         9.9326u 
    1.77500n    0.         9.9326u 
    1.77600n    0.         9.9326u 
    1.77700n    0.         9.9326u 
    1.77800n    0.         9.9326u 
    1.77900n    0.         9.9326u 
    1.78000n    0.         9.9326u 
    1.78100n    0.         9.9326u 
    1.78200n    0.         9.9326u 
    1.78300n    0.         9.9326u 
    1.78400n    0.         9.9326u 
    1.78500n    0.         9.9326u 
    1.78600n    0.         9.9326u 
    1.78700n    0.         9.9326u 
    1.78800n    0.         9.9326u 
    1.78900n    0.         9.9326u 
    1.79000n    0.         9.9326u 
    1.79100n    0.         9.9326u 
    1.79200n    0.         9.9326u 
    1.79300n    0.         9.9326u 
    1.79400n    0.         9.9326u 
    1.79500n    0.         9.9326u 
    1.79600n    0.         9.9326u 
    1.79700n    0.         9.9326u 
    1.79800n    0.         9.9326u 
    1.79900n    0.         9.9326u 
    1.80000n    0.         9.9326u 
    1.80100n    0.         9.9326u 
    1.80200n    0.         9.9326u 
    1.80300n    0.         9.9326u 
    1.80400n    0.         9.9326u 
    1.80500n    0.         9.9326u 
    1.80600n    0.         9.9326u 
    1.80700n    0.         9.9326u 
    1.80800n    0.         9.9326u 
    1.80900n    0.         9.9326u 
    1.81000n    0.         9.9326u 
    1.81100n    0.         9.9326u 
    1.81200n    0.         9.9326u 
    1.81300n    0.         9.9326u 
    1.81400n    0.         9.9326u 
    1.81500n    0.         9.9326u 
    1.81600n    0.         9.9326u 
    1.81700n    0.         9.9326u 
    1.81800n    0.         9.9326u 
    1.81900n    0.         9.9326u 
    1.82000n    0.         9.9326u 
    1.82100n    0.         9.9326u 
    1.82200n    0.         9.9326u 
    1.82300n    0.         9.9326u 
    1.82400n    0.         9.9326u 
    1.82500n    0.         9.9326u 
    1.82600n    0.         9.9326u 
    1.82700n    0.         9.9326u 
    1.82800n    0.         9.9326u 
    1.82900n    0.         9.9326u 
    1.83000n    0.         9.9326u 
    1.83100n    0.         9.9326u 
    1.83200n    0.         9.9326u 
    1.83300n    0.         9.9326u 
    1.83400n    0.         9.9326u 
    1.83500n    0.         9.9326u 
    1.83600n    0.         9.9326u 
    1.83700n    0.         9.9326u 
    1.83800n    0.         9.9326u 
    1.83900n    0.         9.9326u 
    1.84000n    0.         9.9326u 
    1.84100n    0.         9.9326u 
    1.84200n    0.         9.9326u 
    1.84300n    0.         9.9326u 
    1.84400n    0.         9.9326u 
    1.84500n    0.         9.9326u 
    1.84600n    0.         9.9326u 
    1.84700n    0.         9.9326u 
    1.84800n    0.         9.9326u 
    1.84900n    0.         9.9326u 
    1.85000n    0.         9.9326u 
    1.85100n    0.         9.9326u 
    1.85200n    0.         9.9326u 
    1.85300n    0.         9.9326u 
    1.85400n    0.         9.9326u 
    1.85500n    0.         9.9326u 
    1.85600n    0.         9.9326u 
    1.85700n    0.         9.9326u 
    1.85800n    0.         9.9326u 
    1.85900n    0.         9.9326u 
    1.86000n    0.         9.9326u 
    1.86100n    0.         9.9326u 
    1.86200n    0.         9.9326u 
    1.86300n    0.         9.9326u 
    1.86400n    0.         9.9326u 
    1.86500n    0.         9.9326u 
    1.86600n    0.         9.9326u 
    1.86700n    0.         9.9326u 
    1.86800n    0.         9.9326u 
    1.86900n    0.         9.9326u 
    1.87000n    0.         9.9326u 
    1.87100n    0.         9.9326u 
    1.87200n    0.         9.9326u 
    1.87300n    0.         9.9326u 
    1.87400n    0.         9.9326u 
    1.87500n    0.         9.9326u 
    1.87600n    0.         9.9326u 
    1.87700n    0.         9.9326u 
    1.87800n    0.         9.9326u 
    1.87900n    0.         9.9326u 
    1.88000n    0.         9.9326u 
    1.88100n    0.         9.9326u 
    1.88200n    0.         9.9326u 
    1.88300n    0.         9.9326u 
    1.88400n    0.         9.9326u 
    1.88500n    0.         9.9326u 
    1.88600n    0.         9.9326u 
    1.88700n    0.         9.9326u 
    1.88800n    0.         9.9326u 
    1.88900n    0.         9.9326u 
    1.89000n    0.         9.9326u 
    1.89100n    0.         9.9326u 
    1.89200n    0.         9.9326u 
    1.89300n    0.         9.9326u 
    1.89400n    0.         9.9326u 
    1.89500n    0.         9.9326u 
    1.89600n    0.         9.9326u 
    1.89700n    0.         9.9326u 
    1.89800n    0.         9.9326u 
    1.89900n    0.         9.9326u 
    1.90000n    0.         9.9326u 
    1.90100n    0.         9.9326u 
    1.90200n    0.         9.9326u 
    1.90300n    0.         9.9326u 
    1.90400n    0.         9.9326u 
    1.90500n    0.         9.9326u 
    1.90600n    0.         9.9326u 
    1.90700n    0.         9.9326u 
    1.90800n    0.         9.9326u 
    1.90900n    0.         9.9326u 
    1.91000n    0.         9.9326u 
    1.91100n    0.         9.9326u 
    1.91200n    0.         9.9326u 
    1.91300n    0.         9.9326u 
    1.91400n    0.         9.9326u 
    1.91500n    0.         9.9326u 
    1.91600n    0.         9.9326u 
    1.91700n    0.         9.9326u 
    1.91800n    0.         9.9326u 
    1.91900n    0.         9.9326u 
    1.92000n    0.         9.9326u 
    1.92100n    0.         9.9326u 
    1.92200n    0.         9.9326u 
    1.92300n    0.         9.9326u 
    1.92400n    0.         9.9326u 
    1.92500n    0.         9.9326u 
    1.92600n    0.         9.9326u 
    1.92700n    0.         9.9326u 
    1.92800n    0.         9.9326u 
    1.92900n    0.         9.9326u 
    1.93000n    0.         9.9326u 
    1.93100n    0.         9.9326u 
    1.93200n    0.         9.9326u 
    1.93300n    0.         9.9326u 
    1.93400n    0.         9.9326u 
    1.93500n    0.         9.9326u 
    1.93600n    0.         9.9326u 
    1.93700n    0.         9.9326u 
    1.93800n    0.         9.9326u 
    1.93900n    0.         9.9326u 
    1.94000n    0.         9.9326u 
    1.94100n    0.         9.9326u 
    1.94200n    0.         9.9326u 
    1.94300n    0.         9.9326u 
    1.94400n    0.         9.9326u 
    1.94500n    0.         9.9326u 
    1.94600n    0.         9.9326u 
    1.94700n    0.         9.9326u 
    1.94800n    0.         9.9326u 
    1.94900n    0.         9.9326u 
    1.95000n    0.         9.9326u 
    1.95100n    0.         9.9326u 
    1.95200n    0.         9.9326u 
    1.95300n    0.         9.9326u 
    1.95400n    0.         9.9326u 
    1.95500n    0.         9.9326u 
    1.95600n    0.         9.9326u 
    1.95700n    0.         9.9326u 
    1.95800n    0.         9.9326u 
    1.95900n    0.         9.9326u 
    1.96000n    0.         9.9326u 
    1.96100n    0.         9.9326u 
    1.96200n    0.         9.9326u 
    1.96300n    0.         9.9326u 
    1.96400n    0.         9.9326u 
    1.96500n    0.         9.9326u 
    1.96600n    0.         9.9326u 
    1.96700n    0.         9.9326u 
    1.96800n    0.         9.9326u 
    1.96900n    0.         9.9326u 
    1.97000n    0.         9.9326u 
    1.97100n    0.         9.9326u 
    1.97200n    0.         9.9326u 
    1.97300n    0.         9.9326u 
    1.97400n    0.         9.9326u 
    1.97500n    0.         9.9326u 
    1.97600n    0.         9.9326u 
    1.97700n    0.         9.9326u 
    1.97800n    0.         9.9326u 
    1.97900n    0.         9.9326u 
    1.98000n    0.         9.9326u 
    1.98100n    0.         9.9326u 
    1.98200n    0.         9.9326u 
    1.98300n    0.         9.9326u 
    1.98400n    0.         9.9326u 
    1.98500n    0.         9.9326u 
    1.98600n    0.         9.9326u 
    1.98700n    0.         9.9326u 
    1.98800n    0.         9.9326u 
    1.98900n    0.         9.9326u 
    1.99000n    0.         9.9326u 
    1.99100n    0.         9.9326u 
    1.99200n    0.         9.9326u 
    1.99300n    0.         9.9326u 
    1.99400n    0.         9.9326u 
    1.99500n    0.         9.9326u 
    1.99600n    0.         9.9326u 
    1.99700n    0.         9.9326u 
    1.99800n    0.         9.9326u 
    1.99900n    0.         9.9326u 
    2.00000n    0.         9.9326u 
    2.00100n    0.         9.9326u 
    2.00200n    0.         9.9326u 
    2.00300n    0.         9.9326u 
    2.00400n    0.         9.9326u 
    2.00500n    0.         9.9326u 
    2.00600n    0.         9.9326u 
    2.00700n    0.         9.9326u 
    2.00800n    0.         9.9326u 
    2.00900n    0.         9.9326u 
    2.01000n    0.         9.9326u 
    2.01100n    0.         9.9326u 
    2.01200n    0.         9.9326u 
    2.01300n    0.         9.9326u 
    2.01400n    0.         9.9326u 
    2.01500n    0.         9.9326u 
    2.01600n    0.         9.9326u 
    2.01700n    0.         9.9326u 
    2.01800n    0.         9.9326u 
    2.01900n    0.         9.9326u 
    2.02000n    0.         9.9326u 
    2.02100n    0.         9.9326u 
    2.02200n    0.         9.9326u 
    2.02300n    0.         9.9326u 
    2.02400n    0.         9.9326u 
    2.02500n    0.         9.9326u 
    2.02600n    0.         9.9326u 
    2.02700n    0.         9.9326u 
    2.02800n    0.         9.9326u 
    2.02900n    0.         9.9326u 
    2.03000n    0.         9.9326u 
    2.03100n    0.         9.9326u 
    2.03200n    0.         9.9326u 
    2.03300n    0.         9.9326u 
    2.03400n    0.         9.9326u 
    2.03500n    0.         9.9326u 
    2.03600n    0.         9.9326u 
    2.03700n    0.         9.9326u 
    2.03800n    0.         9.9326u 
    2.03900n    0.         9.9326u 
    2.04000n    0.         9.9326u 
    2.04100n    0.         9.9326u 
    2.04200n    0.         9.9326u 
    2.04300n    0.         9.9326u 
    2.04400n    0.         9.9326u 
    2.04500n    0.         9.9326u 
    2.04600n    0.         9.9326u 
    2.04700n    0.         9.9326u 
    2.04800n    0.         9.9326u 
    2.04900n    0.         9.9326u 
    2.05000n    0.         9.9326u 
    2.05100n    0.         9.9326u 
    2.05200n    0.         9.9326u 
    2.05300n    0.         9.9326u 
    2.05400n    0.         9.9326u 
    2.05500n    0.         9.9326u 
    2.05600n    0.         9.9326u 
    2.05700n    0.         9.9326u 
    2.05800n    0.         9.9326u 
    2.05900n    0.         9.9326u 
    2.06000n    0.         9.9326u 
    2.06100n    0.         9.9326u 
    2.06200n    0.         9.9326u 
    2.06300n    0.         9.9326u 
    2.06400n    0.         9.9326u 
    2.06500n    0.         9.9326u 
    2.06600n    0.         9.9326u 
    2.06700n    0.         9.9326u 
    2.06800n    0.         9.9326u 
    2.06900n    0.         9.9326u 
    2.07000n    0.         9.9326u 
    2.07100n    0.         9.9326u 
    2.07200n    0.         9.9326u 
    2.07300n    0.         9.9326u 
    2.07400n    0.         9.9326u 
    2.07500n    0.         9.9326u 
    2.07600n    0.         9.9326u 
    2.07700n    0.         9.9326u 
    2.07800n    0.         9.9326u 
    2.07900n    0.         9.9326u 
    2.08000n    0.         9.9326u 
    2.08100n    0.         9.9326u 
    2.08200n    0.         9.9326u 
    2.08300n    0.         9.9326u 
    2.08400n    0.         9.9326u 
    2.08500n    0.         9.9326u 
    2.08600n    0.         9.9326u 
    2.08700n    0.         9.9326u 
    2.08800n    0.         9.9326u 
    2.08900n    0.         9.9326u 
    2.09000n    0.         9.9326u 
    2.09100n    0.         9.9326u 
    2.09200n    0.         9.9326u 
    2.09300n    0.         9.9326u 
    2.09400n    0.         9.9326u 
    2.09500n    0.         9.9326u 
    2.09600n    0.         9.9326u 
    2.09700n    0.         9.9326u 
    2.09800n    0.         9.9326u 
    2.09900n    0.         9.9326u 
    2.10000n    0.         9.9326u 
    2.10100n    0.         9.9326u 
    2.10200n    0.         9.9326u 
    2.10300n    0.         9.9326u 
    2.10400n    0.         9.9326u 
    2.10500n    0.         9.9326u 
    2.10600n    0.         9.9326u 
    2.10700n    0.         9.9326u 
    2.10800n    0.         9.9326u 
    2.10900n    0.         9.9326u 
    2.11000n    0.         9.9326u 
    2.11100n    0.         9.9326u 
    2.11200n    0.         9.9326u 
    2.11300n    0.         9.9326u 
    2.11400n    0.         9.9326u 
    2.11500n    0.         9.9326u 
    2.11600n    0.         9.9326u 
    2.11700n    0.         9.9326u 
    2.11800n    0.         9.9326u 
    2.11900n    0.         9.9326u 
    2.12000n    0.         9.9326u 
    2.12100n    0.         9.9326u 
    2.12200n    0.         9.9326u 
    2.12300n    0.         9.9326u 
    2.12400n    0.         9.9326u 
    2.12500n    0.         9.9326u 
    2.12600n    0.         9.9326u 
    2.12700n    0.         9.9326u 
    2.12800n    0.         9.9326u 
    2.12900n    0.         9.9326u 
    2.13000n    0.         9.9326u 
    2.13100n    0.         9.9326u 
    2.13200n    0.         9.9326u 
    2.13300n    0.         9.9326u 
    2.13400n    0.         9.9326u 
    2.13500n    0.         9.9326u 
    2.13600n    0.         9.9326u 
    2.13700n    0.         9.9326u 
    2.13800n    0.         9.9326u 
    2.13900n    0.         9.9326u 
    2.14000n    0.         9.9326u 
    2.14100n    0.         9.9326u 
    2.14200n    0.         9.9326u 
    2.14300n    0.         9.9326u 
    2.14400n    0.         9.9326u 
    2.14500n    0.         9.9326u 
    2.14600n    0.         9.9326u 
    2.14700n    0.         9.9326u 
    2.14800n    0.         9.9326u 
    2.14900n    0.         9.9326u 
    2.15000n    0.         9.9326u 
    2.15100n    0.         9.9326u 
    2.15200n    0.         9.9326u 
    2.15300n    0.         9.9326u 
    2.15400n    0.         9.9326u 
    2.15500n    0.         9.9326u 
    2.15600n    0.         9.9326u 
    2.15700n    0.         9.9326u 
    2.15800n    0.         9.9326u 
    2.15900n    0.         9.9326u 
    2.16000n    0.         9.9326u 
[...]
   59.49100n    0.        20.8585u 
   59.49200n    0.        20.8460u 
   59.49300n    0.        20.8335u 
   59.49400n    0.        20.8210u 
   59.49500n    0.        20.8085u 
   59.49600n    0.        20.7960u 
   59.49700n    0.        20.7836u 
   59.49800n    0.        20.7711u 
   59.49900n    0.        20.7586u 
   59.50000n    0.        20.7461u 
   59.50100n    0.        20.7336u 
   59.50200n    0.        20.7211u 
   59.50300n    0.        20.7086u 
   59.50400n    0.        20.6961u 
   59.50500n    0.        20.6836u 
   59.50600n    0.        20.6711u 
   59.50700n    0.        20.6586u 
   59.50800n    0.        20.6461u 
   59.50900n    0.        20.6336u 
   59.51000n    0.        20.6211u 
   59.51100n    0.        20.6086u 
   59.51200n    0.        20.5961u 
   59.51300n    0.        20.5837u 
   59.51400n    0.        20.5712u 
   59.51500n    0.        20.5587u 
   59.51600n    0.        20.5462u 
   59.51700n    0.        20.5337u 
   59.51800n    0.        20.5212u 
   59.51900n    0.        20.5087u 
   59.52000n    0.        20.4962u 
   59.52100n    0.        20.4837u 
   59.52200n    0.        20.4712u 
   59.52300n    0.        20.4587u 
   59.52400n    0.        20.4462u 
   59.52500n    0.        20.4337u 
   59.52600n    0.        20.4212u 
   59.52700n    0.        20.4087u 
   59.52800n    0.        20.3962u 
   59.52900n    0.        20.3838u 
   59.53000n    0.        20.3713u 
   59.53100n    0.        20.3588u 
   59.53200n    0.        20.3463u 
   59.53300n    0.        20.3338u 
   59.53400n    0.        20.3213u 
   59.53500n    0.        20.3088u 
   59.53600n    0.        20.2963u 
   59.53700n    0.        20.2838u 
   59.53800n    0.        20.2713u 
   59.53900n    0.        20.2588u 
   59.54000n    0.        20.2463u 
   59.54100n    0.        20.2338u 
   59.54200n    0.        20.2213u 
   59.54300n    0.        20.2088u 
   59.54400n    0.        20.1963u 
   59.54500n    0.        20.1839u 
   59.54600n    0.        20.1714u 
   59.54700n    0.        20.1589u 
   59.54800n    0.        20.1464u 
   59.54900n    0.        20.1339u 
   59.55000n    0.        20.1214u 
   59.55100n    0.        20.1089u 
   59.55200n    0.        20.0964u 
   59.55300n    0.        20.0839u 
   59.55400n    0.        20.0714u 
   59.55500n    0.        20.0589u 
   59.55600n    0.        20.0464u 
   59.55700n    0.        20.0339u 
   59.55800n    0.        20.0214u 
   59.55900n    0.        20.0089u 
   59.56000n    0.        19.9964u 
   59.56100n    0.        19.9840u 
   59.56200n    0.        19.9715u 
   59.56300n    0.        19.9590u 
   59.56400n    0.        19.9465u 
   59.56500n    0.        19.9340u 
   59.56600n    0.        19.9215u 
   59.56700n    0.        19.9090u 
   59.56800n    0.        19.8965u 
   59.56900n    0.        19.8840u 
   59.57000n    0.        19.8715u 
   59.57100n    0.        19.8590u 
   59.57200n    0.        19.8465u 
   59.57300n    0.        19.8340u 
   59.57400n    0.        19.8215u 
   59.57500n    0.        19.8090u 
   59.57600n    0.        19.7966u 
   59.57700n    0.        19.7841u 
   59.57800n    0.        19.7716u 
   59.57900n    0.        19.7591u 
   59.58000n    0.        19.7466u 
   59.58100n    0.        19.7341u 
   59.58200n    0.        19.7216u 
   59.58300n    0.        19.7091u 
   59.58400n    0.        19.6966u 
   59.58500n    0.        19.6841u 
   59.58600n    0.        19.6716u 
   59.58700n    0.        19.6591u 
   59.58800n    0.        19.6466u 
   59.58900n    0.        19.6341u 
   59.59000n    0.        19.6216u 
   59.59100n    0.        19.6091u 
   59.59200n    0.        19.5967u 
   59.59300n    0.        19.5842u 
   59.59400n    0.        19.5717u 
   59.59500n    0.        19.5592u 
   59.59600n    0.        19.5467u 
   59.59700n    0.        19.5342u 
   59.59800n    0.        19.5217u 
   59.59900n    0.        19.5092u 
   59.60000n    0.        19.4967u 
   59.60100n    0.        19.4842u 
   59.60200n    0.        19.4717u 
   59.60300n    0.        19.4592u 
   59.60400n    0.        19.4467u 
   59.60500n    0.        19.4342u 
   59.60600n    0.        19.4217u 
   59.60700n    0.        19.4092u 
   59.60800n    0.        19.3968u 
   59.60900n    0.        19.3843u 
   59.61000n    0.        19.3718u 
   59.61100n    0.        19.3593u 
   59.61200n    0.        19.3468u 
   59.61300n    0.        19.3343u 
   59.61400n    0.        19.3218u 
   59.61500n    0.        19.3093u 
   59.61600n    0.        19.2968u 
   59.61700n    0.        19.2843u 
   59.61800n    0.        19.2718u 
   59.61900n    0.        19.2593u 
   59.62000n    0.        19.2468u 
   59.62100n    0.        19.2343u 
   59.62200n    0.        19.2218u 
   59.62300n    0.        19.2093u 
   59.62400n    0.        19.1969u 
   59.62500n    0.        19.1844u 
   59.62600n    0.        19.1719u 
   59.62700n    0.        19.1594u 
   59.62800n    0.        19.1469u 
   59.62900n    0.        19.1344u 
   59.63000n    0.        19.1219u 
   59.63100n    0.        19.1094u 
   59.63200n    0.        19.0969u 
   59.63300n    0.        19.0844u 
   59.63400n    0.        19.0719u 
   59.63500n    0.        19.0594u 
   59.63600n    0.        19.0469u 
   59.63700n    0.        19.0344u 
   59.63800n    0.        19.0219u 
   59.63900n    0.        19.0094u 
   59.64000n    0.        18.9970u 
   59.64100n    0.        18.9845u 
   59.64200n    0.        18.9720u 
   59.64300n    0.        18.9595u 
   59.64400n    0.        18.9470u 
   59.64500n    0.        18.9345u 
   59.64600n    0.        18.9220u 
   59.64700n    0.        18.9095u 
   59.64800n    0.        18.8970u 
   59.64900n    0.        18.8845u 
   59.65000n    0.        18.8720u 
   59.65100n    0.        18.8595u 
   59.65200n    0.        18.8470u 
   59.65300n    0.        18.8345u 
   59.65400n    0.        18.8220u 
   59.65500n    0.        18.8095u 
   59.65600n    0.        18.7971u 
   59.65700n    0.        18.7846u 
   59.65800n    0.        18.7721u 
   59.65900n    0.        18.7596u 
   59.66000n    0.        18.7471u 
   59.66100n    0.        18.7346u 
   59.66200n    0.        18.7221u 
   59.66300n    0.        18.7096u 
   59.66400n    0.        18.6971u 
   59.66500n    0.        18.6846u 
   59.66600n    0.        18.6721u 
   59.66700n    0.        18.6596u 
   59.66800n    0.        18.6471u 
   59.66900n    0.        18.6346u 
   59.67000n    0.        18.6221u 
   59.67100n    0.        18.6096u 
   59.67200n    0.        18.5972u 
   59.67300n    0.        18.5847u 
   59.67400n    0.        18.5722u 
   59.67500n    0.        18.5597u 
   59.67600n    0.        18.5472u 
   59.67700n    0.        18.5347u 
   59.67800n    0.        18.5222u 
   59.67900n    0.        18.5097u 
   59.68000n    0.        18.4972u 
   59.68100n    0.        18.4847u 
   59.68200n    0.        18.4722u 
   59.68300n    0.        18.4597u 
   59.68400n    0.        18.4472u 
   59.68500n    0.        18.4347u 
   59.68600n    0.        18.4222u 
   59.68700n    0.        18.4097u 
   59.68800n    0.        18.3973u 
   59.68900n    0.        18.3848u 
   59.69000n    0.        18.3723u 
   59.69100n    0.        18.3598u 
   59.69200n    0.        18.3473u 
   59.69300n    0.        18.3348u 
   59.69400n    0.        18.3223u 
   59.69500n    0.        18.3098u 
   59.69600n    0.        18.2973u 
   59.69700n    0.        18.2848u 
   59.69800n    0.        18.2723u 
   59.69900n    0.        18.2598u 
   59.70000n    0.        18.2473u 
   59.70100n    0.        18.2348u 
   59.70200n    0.        18.2223u 
   59.70300n    0.        18.2098u 
   59.70400n    0.        18.1974u 
   59.70500n    0.        18.1849u 
   59.70600n    0.        18.1724u 
   59.70700n    0.        18.1599u 
   59.70800n    0.        18.1474u 
   59.70900n    0.        18.1349u 
   59.71000n    0.        18.1224u 
   59.71100n    0.        18.1099u 
   59.71200n    0.        18.0974u 
   59.71300n    0.        18.0849u 
   59.71400n    0.        18.0724u 
   59.71500n    0.        18.0599u 
   59.71600n    0.        18.0474u 
   59.71700n    0.        18.0349u 
   59.71800n    0.        18.0224u 
   59.71900n    0.        18.0100u 
   59.72000n    0.        17.9975u 
   59.72100n    0.        17.9850u 
   59.72200n    0.        17.9725u 
   59.72300n    0.        17.9600u 
   59.72400n    0.        17.9475u 
   59.72500n    0.        17.9350u 
   59.72600n    0.        17.9225u 
   59.72700n    0.        17.9100u 
   59.72800n    0.        17.8975u 
   59.72900n    0.        17.8850u 
   59.73000n    0.        17.8725u 
   59.73100n    0.        17.8600u 
   59.73200n    0.        17.8475u 
   59.73300n    0.        17.8350u 
   59.73400n    0.        17.8225u 
   59.73500n    0.        17.8101u 
   59.73600n    0.        17.7976u 
   59.73700n    0.        17.7851u 
   59.73800n    0.        17.7726u 
   59.73900n    0.        17.7601u 
   59.74000n    0.        17.7476u 
   59.74100n    0.        17.7351u 
   59.74200n    0.        17.7226u 
   59.74300n    0.        17.7101u 
   59.74400n    0.        17.6976u 
   59.74500n    0.        17.6851u 
   59.74600n    0.        17.6726u 
   59.74700n    0.        17.6601u 
   59.74800n    0.        17.6476u 
   59.74900n    0.        17.6351u 
   59.75000n    0.        17.6226u 
   59.75100n    0.        17.6102u 
   59.75200n    0.        17.5977u 
   59.75300n    0.        17.5852u 
   59.75400n    0.        17.5727u 
   59.75500n    0.        17.5602u 
   59.75600n    0.        17.5477u 
   59.75700n    0.        17.5352u 
   59.75800n    0.        17.5227u 
   59.75900n    0.        17.5102u 
   59.76000n    0.        17.4977u 
   59.76100n    0.        17.4852u 
   59.76200n    0.        17.4727u 
   59.76300n    0.        17.4602u 
   59.76400n    0.        17.4477u 
   59.76500n    0.        17.4352u 
   59.76600n    0.        17.4227u 
   59.76700n    0.        17.4103u 
   59.76800n    0.        17.3978u 
   59.76900n    0.        17.3853u 
   59.77000n    0.        17.3728u 
   59.77100n    0.        17.3603u 
   59.77200n    0.        17.3478u 
   59.77300n    0.        17.3353u 
   59.77400n    0.        17.3228u 
   59.77500n    0.        17.3103u 
   59.77600n    0.        17.2978u 
   59.77700n    0.        17.2853u 
   59.77800n    0.        17.2728u 
   59.77900n    0.        17.2603u 
   59.78000n    0.        17.2478u 
   59.78100n    0.        17.2353u 
   59.78200n    0.        17.2228u 
   59.78300n    0.        17.2104u 
   59.78400n    0.        17.1979u 
   59.78500n    0.        17.1854u 
   59.78600n    0.        17.1729u 
   59.78700n    0.        17.1604u 
   59.78800n    0.        17.1479u 
   59.78900n    0.        17.1354u 
   59.79000n    0.        17.1229u 
   59.79100n    0.        17.1104u 
   59.79200n    0.        17.0979u 
   59.79300n    0.        17.0854u 
   59.79400n    0.        17.0729u 
   59.79500n    0.        17.0604u 
   59.79600n    0.        17.0479u 
   59.79700n    0.        17.0354u 
   59.79800n    0.        17.0229u 
   59.79900n    0.        17.0105u 
   59.80000n    0.        16.9980u 
   59.80100n    0.        16.9855u 
   59.80200n    0.        16.9730u 
   59.80300n    0.        16.9605u 
   59.80400n    0.        16.9480u 
   59.80500n    0.        16.9355u 
   59.80600n    0.        16.9230u 
   59.80700n    0.        16.9105u 
   59.80800n    0.        16.8980u 
   59.80900n    0.        16.8855u 
   59.81000n    0.        16.8730u 
   59.81100n    0.        16.8605u 
   59.81200n    0.        16.8480u 
   59.81300n    0.        16.8355u 
   59.81400n    0.        16.8230u 
   59.81500n    0.        16.8106u 
   59.81600n    0.        16.7981u 
   59.81700n    0.        16.7856u 
   59.81800n    0.        16.7731u 
   59.81900n    0.        16.7606u 
   59.82000n    0.        16.7481u 
   59.82100n    0.        16.7356u 
   59.82200n    0.        16.7231u 
   59.82300n    0.        16.7106u 
   59.82400n    0.        16.6981u 
   59.82500n    0.        16.6856u 
   59.82600n    0.        16.6731u 
   59.82700n    0.        16.6606u 
   59.82800n    0.        16.6481u 
   59.82900n    0.        16.6356u 
   59.83000n    0.        16.6231u 
   59.83100n    0.        16.6107u 
   59.83200n    0.        16.5982u 
   59.83300n    0.        16.5857u 
   59.83400n    0.        16.5732u 
   59.83500n    0.        16.5607u 
   59.83600n    0.        16.5482u 
   59.83700n    0.        16.5357u 
   59.83800n    0.        16.5232u 
   59.83900n    0.        16.5107u 
   59.84000n    0.        16.4982u 
   59.84100n    0.        16.4857u 
   59.84200n    0.        16.4732u 
   59.84300n    0.        16.4607u 
   59.84400n    0.        16.4482u 
   59.84500n    0.        16.4357u 
   59.84600n    0.        16.4232u 
   59.84700n    0.        16.4108u 
   59.84800n    0.        16.3983u 
   59.84900n    0.        16.3858u 
   59.85000n    0.        16.3733u 
   59.85100n    0.        16.3608u 
   59.85200n    0.        16.3483u 
   59.85300n    0.        16.3358u 
   59.85400n    0.        16.3233u 
   59.85500n    0.        16.3108u 
   59.85600n    0.        16.2983u 
   59.85700n    0.        16.2858u 
   59.85800n    0.        16.2733u 
   59.85900n    0.        16.2608u 
   59.86000n    0.        16.2483u 
   59.86100n    0.        16.2358u 
   59.86200n    0.        16.2234u 
   59.86300n    0.        16.2109u 
   59.86400n    0.        16.1984u 
   59.86500n    0.        16.1859u 
   59.86600n    0.        16.1734u 
   59.86700n    0.        16.1609u 
   59.86800n    0.        16.1484u 
   59.86900n    0.        16.1359u 
   59.87000n    0.        16.1234u 
   59.87100n    0.        16.1109u 
   59.87200n    0.        16.0984u 
   59.87300n    0.        16.0859u 
   59.87400n    0.        16.0734u 
   59.87500n    0.        16.0609u 
   59.87600n    0.        16.0484u 
   59.87700n    0.        16.0359u 
   59.87800n    0.        16.0235u 
   59.87900n    0.        16.0110u 
   59.88000n    0.        15.9985u 
   59.88100n    0.        15.9860u 
   59.88200n    0.        15.9735u 
   59.88300n    0.        15.9610u 
   59.88400n    0.        15.9485u 
   59.88500n    0.        15.9360u 
   59.88600n    0.        15.9235u 
   59.88700n    0.        15.9110u 
   59.88800n    0.        15.8985u 
   59.88900n    0.        15.8860u 
   59.89000n    0.        15.8735u 
   59.89100n    0.        15.8610u 
   59.89200n    0.        15.8485u 
   59.89300n    0.        15.8360u 
   59.89400n    0.        15.8236u 
   59.89500n    0.        15.8111u 
   59.89600n    0.        15.7986u 
   59.89700n    0.        15.7861u 
   59.89800n    0.        15.7736u 
   59.89900n    0.        15.7611u 
   59.90000n    0.        15.7486u 
   59.90100n    0.        15.7361u 
   59.90200n    0.        15.7236u 
   59.90300n    0.        15.7111u 
   59.90400n    0.        15.6986u 
   59.90500n    0.        15.6861u 
   59.90600n    0.        15.6736u 
   59.90700n    0.        15.6611u 
   59.90800n    0.        15.6486u 
   59.90900n    0.        15.6361u 
   59.91000n    0.        15.6237u 
   59.91100n    0.        15.6112u 
   59.91200n    0.        15.5987u 
   59.91300n    0.        15.5862u 
   59.91400n    0.        15.5737u 
   59.91500n    0.        15.5612u 
   59.91600n    0.        15.5487u 
   59.91700n    0.        15.5362u 
   59.91800n    0.        15.5237u 
   59.91900n    0.        15.5112u 
   59.92000n    0.        15.4987u 
   59.92100n    0.        15.4862u 
   59.92200n    0.        15.4737u 
   59.92300n    0.        15.4612u 
   59.92400n    0.        15.4487u 
   59.92500n    0.        15.4362u 
   59.92600n    0.        15.4238u 
   59.92700n    0.        15.4113u 
   59.92800n    0.        15.3988u 
   59.92900n    0.        15.3863u 
   59.93000n    0.        15.3738u 
   59.93100n    0.        15.3613u 
   59.93200n    0.        15.3488u 
   59.93300n    0.        15.3363u 
   59.93400n    0.        15.3238u 
   59.93500n    0.        15.3113u 
   59.93600n    0.        15.2988u 
   59.93700n    0.        15.2863u 
   59.93800n    0.        15.2738u 
   59.93900n    0.        15.2613u 
   59.94000n    0.        15.2488u 
   59.94100n    0.        15.2363u 
   59.94200n    0.        15.2239u 
   59.94300n    0.        15.2114u 
   59.94400n    0.        15.1989u 
   59.94500n    0.        15.1864u 
   59.94600n    0.        15.1739u 
   59.94700n    0.        15.1614u 
   59.94800n    0.        15.1489u 
   59.94900n    0.        15.1364u 
   59.95000n    0.        15.1239u 
   59.95100n    0.        15.1114u 
   59.95200n    0.        15.0989u 
   59.95300n    0.        15.0864u 
   59.95400n    0.        15.0739u 
   59.95500n    0.        15.0614u 
   59.95600n    0.        15.0489u 
   59.95700n    0.        15.0364u 
   59.95800n    0.        15.0240u 
   59.95900n    0.        15.0115u 
   59.96000n    0.        14.9990u 
   59.96100n    0.        14.9865u 
   59.96200n    0.        14.9740u 
   59.96300n    0.        14.9615u 
   59.96400n    0.        14.9490u 
   59.96500n    0.        14.9365u 
   59.96600n    0.        14.9240u 
   59.96700n    0.        14.9115u 
   59.96800n    0.        14.8990u 
   59.96900n    0.        14.8865u 
   59.97000n    0.        14.8740u 
   59.97100n    0.        14.8615u 
   59.97200n    0.        14.8490u 
   59.97300n    0.        14.8365u 
   59.97400n    0.        14.8241u 
   59.97500n    0.        14.8116u 
   59.97600n    0.        14.7991u 
   59.97700n    0.        14.7866u 
   59.97800n    0.        14.7741u 
   59.97900n    0.        14.7616u 
   59.98000n    0.        14.7491u 
   59.98100n    0.        14.7366u 
   59.98200n    0.        14.7241u 
   59.98300n    0.        14.7116u 
   59.98400n    0.        14.6991u 
   59.98500n    0.        14.6866u 
   59.98600n    0.        14.6741u 
   59.98700n    0.        14.6616u 
   59.98800n    0.        14.6491u 
   59.98900n    0.        14.6366u 
   59.99000n    0.        14.6242u 
   59.99100n    0.        14.6117u 
   59.99200n    0.        14.5992u 
   59.99300n    0.        14.5867u 
   59.99400n    0.        14.5742u 
   59.99500n    0.        14.5617u 
   59.99600n    0.        14.5492u 
   59.99700n    0.        14.5367u 
   59.99800n    0.        14.5242u 
   59.99900n    0.        14.5117u 
   60.00000n    0.        14.4992u 
y
 thl=  47.2831n
 tlh=  11.5382n

          ***** job concluded
 ******  
 

 ****** job statistics summary tnom=  25.000 temp=  25.000 ******

  ******  HSPICE Threads Information  ******

  Command Line Threads Count :     1
  Available CPU Count        :     8
  Actual Threads Count       :     1


  ******  Circuit Statistics  ******
  # nodes       =      39 # elements   =      11
  # resistors   =       0 # capacitors =       1 # inductors   =       0
  # mutual_inds =       0 # vccs       =       0 # vcvs        =       0
  # cccs        =       0 # ccvs       =       0 # volt_srcs   =       2
  # curr_srcs   =       0 # diodes     =       0 # bjts        =       0
  # jfets       =       0 # mosfets    =       8 # U elements  =       0
  # T elements  =       0 # W elements =       0 # B elements  =       0
  # S elements  =       0 # P elements =       0 # va device   =       0
  # vector_srcs =       0 # N elements =       0


  ******  Runtime Statistics (seconds)  ******

  analysis           time    # points   tot. iter  conv.iter
  op point           0.00           1           5
  transient          0.01       60001         243         102 rev=         4
  readin             0.01
  errchk             0.00
  setup              0.00
  output             0.00


           peak memory used         61.57 megabytes
           total cpu time            0.26 seconds
           total elapsed time        0.29 seconds
           job started at     18:59:55 11/14/2021
           job ended   at     18:59:55 11/14/2021


  lic: Release hspice token(s) 
 lic: total license checkout elapse time:        0.02(s)
