 ****** HSPICE -- O-2018.09-SP2 win64 (Feb 25 2019) ******                      
  Copyright (c) 1986 - 2021 by Synopsys, Inc. All Rights Reserved.              
  This software and the associated documentation are proprietary
  to Synopsys, Inc. This software may only be used in accordance
  with the terms and conditions of a written license agreement with
  Synopsys, Inc. All other use, reproduction, or distribution of
  this software is strictly prohibited.
  Input File: M1sample.sp                                                       
  Command line options: C:\synopsys\Hspice_O-2018.09-SP2\WIN64\hspice.com -i M1sample.sp -o C:\mdsy\proj2\M1sample.lis
  Start time: Sun Dec  5 20:38:35 2021
  lic:  
  lic: FLEXlm: SDK_11.7.3 
  lic: USER:   admin                HOSTNAME: DESKTOP-3KO7170 
  lic: HOSTID: "d83bbfb49802"       PID:      29348 
  lic: Using FLEXlm license file: 
  lic: 27000@DESKTOP-3KO7170 
  lic: Checkout 1 hspice 
  lic: License/Maintenance for hspice will expire on 30-dec-2029/2019.2019 
  lic: 1(in_use)/99(total) FLOATING license(s) on SERVER 27000@DESKTOP-3KO7170 
  lic:   
 

  
      

Element variations(Local):   element              parameter
 *****************************************************************
 ******  option summary
 ******
 runlvl  = 3         bypass  = 2.0000    
 ******
 

 ****** dc transfer curves tnom=  25.000 temp=  25.000 ******
x

 volt         param      param      param     
             gm         ids        vth        
    0.        779.4459f   26.5415f  571.4526m 
    1.00000m  802.6750f   27.3325f  571.4526m 
    2.00000m  826.5964f   28.1471f  571.4526m 
    3.00000m  851.2306f   28.9859f  571.4526m 
    4.00000m  876.5990f   29.8498f  571.4526m 
    5.00000m  902.7234f   30.7394f  571.4526m 
    6.00000m  929.6263f   31.6555f  571.4526m 
    7.00000m  957.3310f   32.5989f  571.4526m 
    8.00000m  985.8612f   33.5704f  571.4526m 
    9.00000m    1.0152p   34.5709f  571.4526m 
   10.00000m    1.0455p   35.6012f  571.4526m 
   11.00000m    1.0767p   36.6622f  571.4526m 
   12.00000m    1.1087p   37.7548f  571.4526m 
   13.00000m    1.1418p   38.8800f  571.4526m 
   14.00000m    1.1758p   40.0387f  571.4526m 
   15.00000m    1.2109p   41.2320f  571.4526m 
   16.00000m    1.2469p   42.4608f  571.4526m 
   17.00000m    1.2841p   43.7262f  571.4526m 
   18.00000m    1.3224p   45.0293f  571.4526m 
   19.00000m    1.3618p   46.3713f  571.4526m 
   20.00000m    1.4024p   47.7533f  571.4526m 
   21.00000m    1.4442p   49.1764f  571.4526m 
   22.00000m    1.4872p   50.6420f  571.4526m 
   23.00000m    1.5315p   52.1512f  571.4526m 
   24.00000m    1.5772p   53.7055f  571.4526m 
   25.00000m    1.6242p   55.3060f  571.4526m 
   26.00000m    1.6726p   56.9542f  571.4526m 
   27.00000m    1.7224p   58.6516f  571.4526m 
   28.00000m    1.7737p   60.3995f  571.4526m 
   29.00000m    1.8266p   62.1996f  571.4526m 
   30.00000m    1.8810p   64.0532f  571.4526m 
   31.00000m    1.9371p   65.9621f  571.4526m 
   32.00000m    1.9948p   67.9279f  571.4526m 
   33.00000m    2.0543p   69.9523f  571.4526m 
   34.00000m    2.1155p   72.0370f  571.4526m 
   35.00000m    2.1785p   74.1839f  571.4526m 
   36.00000m    2.2434p   76.3947f  571.4526m 
   37.00000m    2.3103p   78.6714f  571.4526m 
   38.00000m    2.3791p   81.0160f  571.4526m 
   39.00000m    2.4500p   83.4304f  571.4526m 
   40.00000m    2.5231p   85.9168f  571.4526m 
   41.00000m    2.5983p   88.4772f  571.4526m 
   42.00000m    2.6757p   91.1140f  571.4526m 
   43.00000m    2.7554p   93.8294f  571.4526m 
   44.00000m    2.8375p   96.6257f  571.4526m 
   45.00000m    2.9221p   99.5053f  571.4526m 
   46.00000m    3.0092p  102.4707f  571.4526m 
   47.00000m    3.0988p  105.5245f  571.4526m 
   48.00000m    3.1912p  108.6693f  571.4526m 
   49.00000m    3.2863p  111.9078f  571.4526m 
   50.00000m    3.3842p  115.2428f  571.4526m 
   51.00000m    3.4851p  118.6772f  571.4526m 
   52.00000m    3.5889p  122.2140f  571.4526m 
   53.00000m    3.6959p  125.8561f  571.4526m 
   54.00000m    3.8060p  129.6068f  571.4526m 
   55.00000m    3.9195p  133.4693f  571.4526m 
   56.00000m    4.0363p  137.4469f  571.4526m 
   57.00000m    4.1565p  141.5430f  571.4526m 
   58.00000m    4.2804p  145.7611f  571.4526m 
   59.00000m    4.4080p  150.1050f  571.4526m 
   60.00000m    4.5393p  154.5783f  571.4526m 
   61.00000m    4.6746p  159.1849f  571.4526m 
   62.00000m    4.8139p  163.9288f  571.4526m 
   63.00000m    4.9573p  168.8141f  571.4526m 
   64.00000m    5.1051p  173.8449f  571.4526m 
   65.00000m    5.2572p  179.0257f  571.4526m 
   66.00000m    5.4139p  184.3608f  571.4526m 
   67.00000m    5.5752p  189.8550f  571.4526m 
   68.00000m    5.7413p  195.5128f  571.4526m 
   69.00000m    5.9124p  201.3393f  571.4526m 
   70.00000m    6.0886p  207.3394f  571.4526m 
   71.00000m    6.2701p  213.5183f  571.4526m 
   72.00000m    6.4569p  219.8813f  571.4526m 
   73.00000m    6.6493p  226.4339f  571.4526m 
   74.00000m    6.8475p  233.1818f  571.4526m 
   75.00000m    7.0515p  240.1308f  571.4526m 
   76.00000m    7.2616p  247.2868f  571.4526m 
   77.00000m    7.4780p  254.6561f  571.4526m 
   78.00000m    7.7009p  262.2450f  571.4526m 
   79.00000m    7.9303p  270.0601f  571.4526m 
   80.00000m    8.1667p  278.1080f  571.4526m 
   81.00000m    8.4100p  286.3957f  571.4526m 
   82.00000m    8.6606p  294.9304f  571.4526m 
   83.00000m    8.9187p  303.7194f  571.4526m 
   84.00000m    9.1845p  312.7704f  571.4526m 
   85.00000m    9.4581p  322.0910f  571.4526m 
   86.00000m    9.7400p  331.6894f  571.4526m 
   87.00000m   10.0302p  341.5738f  571.4526m 
   88.00000m   10.3291p  351.7527f  571.4526m 
   89.00000m   10.6369p  362.2350f  571.4526m 
   90.00000m   10.9539p  373.0296f  571.4526m 
   91.00000m   11.2803p  384.1458f  571.4526m 
   92.00000m   11.6164p  395.5933f  571.4526m 
   93.00000m   11.9625p  407.3819f  571.4526m 
   94.00000m   12.3190p  419.5218f  571.4526m 
   95.00000m   12.6861p  432.0235f  571.4526m 
   96.00000m   13.0641p  444.8976f  571.4526m 
   97.00000m   13.4534p  458.1554f  571.4526m 
   98.00000m   13.8543p  471.8082f  571.4526m 
   99.00000m   14.2671p  485.8679f  571.4526m 
  100.00000m   14.6922p  500.3465f  571.4526m 
  101.00000m   15.1300p  515.2565f  571.4526m 
  102.00000m   15.5808p  530.6108f  571.4526m 
  103.00000m   16.0451p  546.4226f  571.4526m 
  104.00000m   16.5232p  562.7056f  571.4526m 
  105.00000m   17.0155p  579.4737f  571.4526m 
  106.00000m   17.5225p  596.7415f  571.4526m 
  107.00000m   18.0446p  614.5238f  571.4526m 
  108.00000m   18.5823p  632.8360f  571.4526m 
  109.00000m   19.1360p  651.6938f  571.4526m 
  110.00000m   19.7062p  671.1135f  571.4526m 
  111.00000m   20.2934p  691.1118f  571.4526m 
  112.00000m   20.8980p  711.7060f  571.4526m 
  113.00000m   21.5207p  732.9138f  571.4526m 
  114.00000m   22.1619p  754.7536f  571.4526m 
  115.00000m   22.8223p  777.2441f  571.4526m 
  116.00000m   23.5023p  800.4047f  571.4526m 
  117.00000m   24.2025p  824.2554f  571.4526m 
  118.00000m   24.9237p  848.8167f  571.4526m 
  119.00000m   25.6663p  874.1099f  571.4526m 
  120.00000m   26.4310p  900.1567f  571.4526m 
  121.00000m   27.2185p  926.9796f  571.4526m 
  122.00000m   28.0295p  954.6016f  571.4526m 
  123.00000m   28.8647p  983.0467f  571.4526m 
  124.00000m   29.7247p    1.0123p  571.4526m 
  125.00000m   30.6103p    1.0425p  571.4526m 
  126.00000m   31.5224p    1.0736p  571.4526m 
  127.00000m   32.4615p    1.1056p  571.4526m 
  128.00000m   33.4287p    1.1385p  571.4526m 
  129.00000m   34.4247p    1.1724p  571.4526m 
  130.00000m   35.4503p    1.2074p  571.4526m 
  131.00000m   36.5066p    1.2433p  571.4526m 
  132.00000m   37.5942p    1.2804p  571.4526m 
  133.00000m   38.7143p    1.3185p  571.4526m 
  134.00000m   39.8677p    1.3578p  571.4526m 
  135.00000m   41.0555p    1.3983p  571.4526m 
  136.00000m   42.2787p    1.4399p  571.4526m 
  137.00000m   43.5383p    1.4829p  571.4526m 
  138.00000m   44.8354p    1.5270p  571.4526m 
  139.00000m   46.1712p    1.5725p  571.4526m 
  140.00000m   47.5468p    1.6194p  571.4526m 
  141.00000m   48.9633p    1.6676p  571.4526m 
  142.00000m   50.4220p    1.7173p  571.4526m 
  143.00000m   51.9242p    1.7685p  571.4526m 
  144.00000m   53.4711p    1.8212p  571.4526m 
  145.00000m   55.0641p    1.8755p  571.4526m 
  146.00000m   56.7046p    1.9313p  571.4526m 
  147.00000m   58.3939p    1.9889p  571.4526m 
  148.00000m   60.1335p    2.0481p  571.4526m 
  149.00000m   61.9250p    2.1092p  571.4526m 
  150.00000m   63.7698p    2.1720p  571.4526m 
  151.00000m   65.6695p    2.2367p  571.4526m 
  152.00000m   67.6259p    2.3034p  571.4526m 
  153.00000m   69.6404p    2.3720p  571.4526m 
  154.00000m   71.7150p    2.4427p  571.4526m 
  155.00000m   73.8514p    2.5154p  571.4526m 
  156.00000m   76.0514p    2.5904p  571.4526m 
  157.00000m   78.3170p    2.6676p  571.4526m 
  158.00000m   80.6500p    2.7471p  571.4526m 
  159.00000m   83.0525p    2.8289p  571.4526m 
  160.00000m   85.5265p    2.9132p  571.4526m 
  161.00000m   88.0742p    3.0000p  571.4526m 
  162.00000m   90.6978p    3.0894p  571.4526m 
  163.00000m   93.3996p    3.1814p  571.4526m 
  164.00000m   96.1818p    3.2762p  571.4526m 
  165.00000m   99.0468p    3.3738p  571.4526m 
  166.00000m  101.9972p    3.4743p  571.4526m 
  167.00000m  105.0354p    3.5778p  571.4526m 
  168.00000m  108.1641p    3.6844p  571.4526m 
  169.00000m  111.3860p    3.7942p  571.4526m 
  170.00000m  114.7038p    3.9072p  571.4526m 
  171.00000m  118.1204p    4.0236p  571.4526m 
  172.00000m  121.6387p    4.1435p  571.4526m 
  173.00000m  125.2618p    4.2669p  571.4526m 
  174.00000m  128.9928p    4.3940p  571.4526m 
  175.00000m  132.8349p    4.5249p  571.4526m 
  176.00000m  136.7914p    4.6597p  571.4526m 
  177.00000m  140.8657p    4.7986p  571.4526m 
  178.00000m  145.0613p    4.9415p  571.4526m 
  179.00000m  149.3819p    5.0887p  571.4526m 
  180.00000m  153.8310p    5.2403p  571.4526m 
  181.00000m  158.4127p    5.3964p  571.4526m 
  182.00000m  163.1308p    5.5572p  571.4526m 
  183.00000m  167.9893p    5.7227p  571.4526m 
  184.00000m  172.9925p    5.8932p  571.4526m 
  185.00000m  178.1446p    6.0688p  571.4526m 
  186.00000m  183.4501p    6.2496p  571.4526m 
  187.00000m  188.9136p    6.4357p  571.4526m 
  188.00000m  194.5397p    6.6274p  571.4526m 
  189.00000m  200.3334p    6.8249p  571.4526m 
  190.00000m  206.2995p    7.0282p  571.4526m 
  191.00000m  212.4432p    7.2375p  571.4526m 
  192.00000m  218.7698p    7.4531p  571.4526m 
  193.00000m  225.2847p    7.6751p  571.4526m 
  194.00000m  231.9935p    7.9038p  571.4526m 
  195.00000m  238.9021p    8.1392p  571.4526m 
  196.00000m  246.0163p    8.3816p  571.4526m 
  197.00000m  253.3423p    8.6313p  571.4526m 
  198.00000m  260.8863p    8.8884p  571.4526m 
  199.00000m  268.6549p    9.1531p  571.4526m 
  200.00000m  276.6547p    9.4258p  571.4526m 
  201.00000m  284.8926p    9.7065p  571.4526m 
  202.00000m  293.3757p    9.9956p  571.4526m 
  203.00000m  302.1113p   10.2934p  571.4526m 
  204.00000m  311.1069p   10.5999p  571.4526m 
  205.00000m  320.3702p   10.9157p  571.4526m 
  206.00000m  329.9092p   11.2408p  571.4526m 
  207.00000m  339.7320p   11.5756p  571.4526m 
  208.00000m  349.8472p   11.9203p  571.4526m 
  209.00000m  360.2634p   12.2754p  571.4526m 
  210.00000m  370.9896p   12.6410p  571.4526m 
  211.00000m  382.0349p   13.0175p  571.4526m 
  212.00000m  393.4090p   13.4051p  571.4526m 
  213.00000m  405.1214p   13.8044p  571.4526m 
  214.00000m  417.1824p   14.2155p  571.4526m 
  215.00000m  429.6023p   14.6389p  571.4526m 
  216.00000m  442.3917p   15.0748p  571.4526m 
  217.00000m  455.5617p   15.5238p  571.4526m 
  218.00000m  469.1234p   15.9861p  571.4526m 
  219.00000m  483.0887p   16.4622p  571.4526m 
  220.00000m  497.4694p   16.9524p  571.4526m 
  221.00000m  512.2780p   17.4572p  571.4526m 
  222.00000m  527.5272p   17.9771p  571.4526m 
  223.00000m  543.2299p   18.5124p  571.4526m 
  224.00000m  559.3999p   19.0637p  571.4526m 
  225.00000m  576.0508p   19.6314p  571.4526m 
  226.00000m  593.1970p   20.2160p  571.4526m 
  227.00000m  610.8532p   20.8180p  571.4526m 
  228.00000m  629.0346p   21.4379p  571.4526m 
  229.00000m  647.7569p   22.0762p  571.4526m 
  230.00000m  667.0359p   22.7336p  571.4526m 
  231.00000m  686.8884p   23.4105p  571.4526m 
  232.00000m  707.3313p   24.1075p  571.4526m 
  233.00000m  728.3821p   24.8254p  571.4526m 
  234.00000m  750.0590p   25.5645p  571.4526m 
  235.00000m  772.3806p   26.3257p  571.4526m 
  236.00000m  795.3659p   27.1095p  571.4526m 
  237.00000m  819.0347p   27.9166p  571.4526m 
  238.00000m  843.4074p   28.7478p  571.4526m 
  239.00000m  868.5047p   29.6037p  571.4526m 
  240.00000m  894.3483p   30.4851p  571.4526m 
  241.00000m  920.9602p   31.3927p  571.4526m 
  242.00000m  948.3634p   32.3272p  571.4526m 
  243.00000m  976.5812p   33.2896p  571.4526m 
  244.00000m    1.0056n   34.2807p  571.4526m 
  245.00000m    1.0356n   35.3012p  571.4526m 
  246.00000m    1.0664n   36.3521p  571.4526m 
  247.00000m    1.0981n   37.4343p  571.4526m 
  248.00000m    1.1308n   38.5486p  571.4526m 
  249.00000m    1.1644n   39.6961p  571.4526m 
  250.00000m    1.1990n   40.8777p  571.4526m 
  251.00000m    1.2347n   42.0945p  571.4526m 
  252.00000m    1.2714n   43.3475p  571.4526m 
  253.00000m    1.3093n   44.6378p  571.4526m 
  254.00000m    1.3482n   45.9664p  571.4526m 
  255.00000m    1.3883n   47.3346p  571.4526m 
  256.00000m    1.4296n   48.7434p  571.4526m 
  257.00000m    1.4721n   50.1942p  571.4526m 
  258.00000m    1.5159n   51.6881p  571.4526m 
  259.00000m    1.5610n   53.2265p  571.4526m 
  260.00000m    1.6074n   54.8105p  571.4526m 
  261.00000m    1.6552n   56.4417p  571.4526m 
  262.00000m    1.7044n   58.1215p  571.4526m 
  263.00000m    1.7551n   59.8511p  571.4526m 
  264.00000m    1.8073n   61.6322p  571.4526m 
  265.00000m    1.8611n   63.4663p  571.4526m 
  266.00000m    1.9164n   65.3549p  571.4526m 
  267.00000m    1.9734n   67.2996p  571.4526m 
  268.00000m    2.0321n   69.3022p  571.4526m 
  269.00000m    2.0925n   71.3643p  571.4526m 
  270.00000m    2.1547n   73.4878p  571.4526m 
  271.00000m    2.2187n   75.6743p  571.4526m 
  272.00000m    2.2847n   77.9259p  571.4526m 
  273.00000m    2.3526n   80.2444p  571.4526m 
  274.00000m    2.4226n   82.6318p  571.4526m 
  275.00000m    2.4946n   85.0902p  571.4526m 
  276.00000m    2.5687n   87.6216p  571.4526m 
  277.00000m    2.6451n   90.2283p  571.4526m 
  278.00000m    2.7237n   92.9125p  571.4526m 
  279.00000m    2.8046n   95.6765p  571.4526m 
  280.00000m    2.8880n   98.5226p  571.4526m 
  281.00000m    2.9738n  101.4532p  571.4526m 
  282.00000m    3.0622n  104.4710p  571.4526m 
  283.00000m    3.1532n  107.5785p  571.4526m 
  284.00000m    3.2469n  110.7782p  571.4526m 
  285.00000m    3.3433n  114.0731p  571.4526m 
  286.00000m    3.4427n  117.4658p  571.4526m 
  287.00000m    3.5449n  120.9594p  571.4526m 
  288.00000m    3.6503n  124.5567p  571.4526m 
  289.00000m    3.7587n  128.2609p  571.4526m 
  290.00000m    3.8703n  132.0752p  571.4526m 
  291.00000m    3.9853n  136.0027p  571.4526m 
  292.00000m    4.1037n  140.0470p  571.4526m 
  293.00000m    4.2256n  144.2113p  571.4526m 
  294.00000m    4.3511n  148.4993p  571.4526m 
  295.00000m    4.4803n  152.9147p  571.4526m 
  296.00000m    4.6133n  157.4612p  571.4526m 
  297.00000m    4.7503n  162.1427p  571.4526m 
  298.00000m    4.8914n  166.9632p  571.4526m 
  299.00000m    5.0366n  171.9269p  571.4526m 
  300.00000m    5.1862n  177.0379p  571.4526m 
  301.00000m    5.3401n  182.3007p  571.4526m 
  302.00000m    5.4987n  187.7197p  571.4526m 
  303.00000m    5.6619n  193.2996p  571.4526m 
  304.00000m    5.8300n  199.0451p  571.4526m 
  305.00000m    6.0030n  204.9611p  571.4526m 
  306.00000m    6.1812n  211.0528p  571.4526m 
  307.00000m    6.3646n  217.3252p  571.4526m 
  308.00000m    6.5535n  223.7838p  571.4526m 
  309.00000m    6.7480n  230.4341p  571.4526m 
  310.00000m    6.9482n  237.2817p  571.4526m 
  311.00000m    7.1544n  244.3325p  571.4526m 
  312.00000m    7.3666n  251.5924p  571.4526m 
  313.00000m    7.5852n  259.0678p  571.4526m 
  314.00000m    7.8102n  266.7649p  571.4526m 
  315.00000m    8.0418n  274.6903p  571.4526m 
  316.00000m    8.2804n  282.8509p  571.4526m 
  317.00000m    8.5259n  291.2534p  571.4526m 
  318.00000m    8.7788n  299.9052p  571.4526m 
  319.00000m    9.0391n  308.8135p  571.4526m 
  320.00000m    9.3072n  317.9860p  571.4526m 
  321.00000m    9.5831n  327.4305p  571.4526m 
  322.00000m    9.8672n  337.1549p  571.4526m 
  323.00000m   10.1597n  347.1677p  571.4526m 
  324.00000m   10.4609n  357.4773p  571.4526m 
  325.00000m   10.7710n  368.0925p  571.4526m 
  326.00000m   11.0902n  379.0223p  571.4526m 
  327.00000m   11.4189n  390.2760p  571.4526m 
  328.00000m   11.7572n  401.8633p  571.4526m 
  329.00000m   12.1056n  413.7939p  571.4526m 
  330.00000m   12.4643n  426.0780p  571.4526m 
  331.00000m   12.8336n  438.7260p  571.4526m 
  332.00000m   13.2137n  451.7487p  571.4526m 
  333.00000m   13.6051n  465.1572p  571.4526m 
  334.00000m   14.0081n  478.9628p  571.4526m 
  335.00000m   14.4229n  493.1773p  571.4526m 
  336.00000m   14.8500n  507.8128p  571.4526m 
  337.00000m   15.2897n  522.8816p  571.4526m 
  338.00000m   15.7424n  538.3966p  571.4526m 
  339.00000m   16.2084n  554.3709p  571.4526m 
  340.00000m   16.6882n  570.8180p  571.4526m 
  341.00000m   17.1822n  587.7520p  571.4526m 
  342.00000m   17.6907n  605.1872p  571.4526m 
  343.00000m   18.2142n  623.1384p  571.4526m 
  344.00000m   18.7531n  641.6207p  571.4526m 
  345.00000m   19.3079n  660.6499p  571.4526m 
  346.00000m   19.8791n  680.2421p  571.4526m 
  347.00000m   20.4671n  700.4138p  571.4526m 
  348.00000m   21.0725n  721.1821p  571.4526m 
  349.00000m   21.6956n  742.5646p  571.4526m 
  350.00000m   22.3372n  764.5795p  571.4526m 
  351.00000m   22.9976n  787.2452p  571.4526m 
  352.00000m   23.6774n  810.5811p  571.4526m 
  353.00000m   24.3773n  834.6068p  571.4526m 
  354.00000m   25.0978n  859.3426p  571.4526m 
  355.00000m   25.8395n  884.8095p  571.4526m 
  356.00000m   26.6030n  911.0289p  571.4526m 
  357.00000m   27.3890n  938.0230p  571.4526m 
  358.00000m   28.1981n  965.8145p  571.4526m 
  359.00000m   29.0309n  994.4270p  571.4526m 
  360.00000m   29.8883n    1.0239n  571.4526m 
  361.00000m   30.7709n    1.0542n  571.4526m 
  362.00000m   31.6794n    1.0854n  571.4526m 
  363.00000m   32.6146n    1.1176n  571.4526m 
  364.00000m   33.5773n    1.1507n  571.4526m 
  365.00000m   34.5682n    1.1847n  571.4526m 
  366.00000m   35.5883n    1.2198n  571.4526m 
  367.00000m   36.6383n    1.2559n  571.4526m 
  368.00000m   37.7191n    1.2931n  571.4526m 
  369.00000m   38.8317n    1.3314n  571.4526m 
  370.00000m   39.9768n    1.3708n  571.4526m 
  371.00000m   41.1556n    1.4113n  571.4526m 
  372.00000m   42.3690n    1.4531n  571.4526m 
  373.00000m   43.6179n    1.4961n  571.4526m 
  374.00000m   44.9034n    1.5404n  571.4526m 
  375.00000m   46.2266n    1.5859n  571.4526m 
  376.00000m   47.5886n    1.6328n  571.4526m 
  377.00000m   48.9904n    1.6811n  571.4526m 
  378.00000m   50.4333n    1.7308n  571.4526m 
  379.00000m   51.9185n    1.7820n  571.4526m 
  380.00000m   53.4471n    1.8347n  571.4526m 
  381.00000m   55.0204n    1.8889n  571.4526m 
  382.00000m   56.6398n    1.9447n  571.4526m 
  383.00000m   58.3065n    2.0022n  571.4526m 
  384.00000m   60.0220n    2.0613n  571.4526m 
  385.00000m   61.7876n    2.1222n  571.4526m 
  386.00000m   63.6047n    2.1849n  571.4526m 
  387.00000m   65.4750n    2.2495n  571.4526m 
  388.00000m   67.3999n    2.3159n  571.4526m 
  389.00000m   69.3810n    2.3843n  571.4526m 
  390.00000m   71.4199n    2.4547n  571.4526m 
  391.00000m   73.5183n    2.5272n  571.4526m 
  392.00000m   75.6778n    2.6017n  571.4526m 
  393.00000m   77.9004n    2.6785n  571.4526m 
  394.00000m   80.1878n    2.7576n  571.4526m 
  395.00000m   82.5418n    2.8389n  571.4526m 
  396.00000m   84.9643n    2.9227n  571.4526m 
  397.00000m   87.4574n    3.0089n  571.4526m 
  398.00000m   90.0231n    3.0976n  571.4526m 
  399.00000m   92.6635n    3.1890n  571.4526m 
  400.00000m   95.3807n    3.2830n  571.4526m 
  401.00000m   98.1769n    3.3797n  571.4526m 
  402.00000m  101.0544n    3.4793n  571.4526m 
  403.00000m  104.0155n    3.5819n  571.4526m 
  404.00000m  107.0626n    3.6874n  571.4526m 
  405.00000m  110.1982n    3.7960n  571.4526m 
  406.00000m  113.4248n    3.9078n  571.4526m 
  407.00000m  116.7450n    4.0229n  571.4526m 
  408.00000m  120.1616n    4.1414n  571.4526m 
  409.00000m  123.6772n    4.2633n  571.4526m 
  410.00000m  127.2947n    4.3887n  571.4526m 
  411.00000m  131.0170n    4.5179n  571.4526m 
  412.00000m  134.8471n    4.6508n  571.4526m 
  413.00000m  138.7881n    4.7876n  571.4526m 
  414.00000m  142.8431n    4.9284n  571.4526m 
  415.00000m  147.0154n    5.0733n  571.4526m 
  416.00000m  151.3084n    5.2225n  571.4526m 
  417.00000m  155.7253n    5.3760n  571.4526m 
  418.00000m  160.2699n    5.5340n  571.4526m 
  419.00000m  164.9456n    5.6966n  571.4526m 
  420.00000m  169.7564n    5.8639n  571.4526m 
  421.00000m  174.7058n    6.0361n  571.4526m 
  422.00000m  179.7980n    6.2134n  571.4526m 
  423.00000m  185.0369n    6.3958n  571.4526m 
  424.00000m  190.4268n    6.5835n  571.4526m 
  425.00000m  195.9718n    6.7767n  571.4526m 
  426.00000m  201.6763n    6.9755n  571.4526m 
  427.00000m  207.5450n    7.1801n  571.4526m 
  428.00000m  213.5823n    7.3907n  571.4526m 
  429.00000m  219.7931n    7.6073n  571.4526m 
  430.00000m  226.1823n    7.8303n  571.4526m 
  431.00000m  232.7548n    8.0598n  571.4526m 
  432.00000m  239.5159n    8.2959n  571.4526m 
  433.00000m  246.4709n    8.5389n  571.4526m 
  434.00000m  253.6251n    8.7889n  571.4526m 
  435.00000m  260.9842n    9.0462n  571.4526m 
  436.00000m  268.5540n    9.3109n  571.4526m 
  437.00000m  276.3403n    9.5834n  571.4526m 
  438.00000m  284.3492n    9.8637n  571.4526m 
  439.00000m  292.5869n   10.1521n  571.4526m 
  440.00000m  301.0599n   10.4489n  571.4526m 
  441.00000m  309.7747n   10.7543n  571.4526m 
  442.00000m  318.7380n   11.0686n  571.4526m 
  443.00000m  327.9568n   11.3919n  571.4526m 
  444.00000m  337.4382n   11.7246n  571.4526m 
  445.00000m  347.1895n   12.0669n  571.4526m 
  446.00000m  357.2183n   12.4190n  571.4526m 
  447.00000m  367.5321n   12.7814n  571.4526m 
  448.00000m  378.1389n   13.1542n  571.4526m 
  449.00000m  389.0469n   13.5378n  571.4526m 
  450.00000m  400.2644n   13.9324n  571.4526m 
  451.00000m  411.7999n   14.3384n  571.4526m 
  452.00000m  423.6622n   14.7561n  571.4526m 
  453.00000m  435.8604n   15.1858n  571.4526m 
  454.00000m  448.4037n   15.6279n  571.4526m 
  455.00000m  461.3016n   16.0828n  571.4526m 
  456.00000m  474.5638n   16.5507n  571.4526m 
  457.00000m  488.2004n   17.0320n  571.4526m 
  458.00000m  502.2217n   17.5272n  571.4526m 
  459.00000m  516.6382n   18.0366n  571.4526m 
  460.00000m  531.4607n   18.5606n  571.4526m 
  461.00000m  546.7003n   19.0996n  571.4526m 
  462.00000m  562.3684n   19.6541n  571.4526m 
  463.00000m  578.4767n   20.2245n  571.4526m 
  464.00000m  595.0372n   20.8112n  571.4526m 
  465.00000m  612.0622n   21.4148n  571.4526m 
  466.00000m  629.5643n   22.0355n  571.4526m 
  467.00000m  647.5565n   22.6740n  571.4526m 
  468.00000m  666.0521n   23.3308n  571.4526m 
  469.00000m  685.0647n   24.0063n  571.4526m 
  470.00000m  704.6083n   24.7011n  571.4526m 
  471.00000m  724.6971n   25.4157n  571.4526m 
  472.00000m  745.3460n   26.1507n  571.4526m 
  473.00000m  766.5699n   26.9066n  571.4526m 
  474.00000m  788.3845n   27.6840n  571.4526m 
  475.00000m  810.8054n   28.4836n  571.4526m 
  476.00000m  833.8490n   29.3059n  571.4526m 
  477.00000m  857.5319n   30.1515n  571.4526m 
  478.00000m  881.8713n   31.0211n  571.4526m 
  479.00000m  906.8846n   31.9155n  571.4526m 
  480.00000m  932.5898n   32.8351n  571.4526m 
  481.00000m  959.0054n   33.7809n  571.4526m 
  482.00000m  986.1501n   34.7534n  571.4526m 
  483.00000m    1.0140u   35.7534n  571.4526m 
  484.00000m    1.0427u   36.7817n  571.4526m 
  485.00000m    1.0722u   37.8391n  571.4526m 
  486.00000m    1.1024u   38.9263n  571.4526m 
  487.00000m    1.1335u   40.0442n  571.4526m 
  488.00000m    1.1654u   41.1936n  571.4526m 
  489.00000m    1.1983u   42.3754n  571.4526m 
  490.00000m    1.2320u   43.5904n  571.4526m 
  491.00000m    1.2666u   44.8397n  571.4526m 
  492.00000m    1.3022u   46.1240n  571.4526m 
  493.00000m    1.3388u   47.4444n  571.4526m 
  494.00000m    1.3763u   48.8018n  571.4526m 
  495.00000m    1.4149u   50.1974n  571.4526m 
  496.00000m    1.4545u   51.6320n  571.4526m 
  497.00000m    1.4952u   53.1067n  571.4526m 
  498.00000m    1.5370u   54.6227n  571.4526m 
  499.00000m    1.5799u   56.1811n  571.4526m 
  500.00000m    1.6240u   57.7829n  571.4526m 
  501.00000m    1.6693u   59.4295n  571.4526m 
  502.00000m    1.7158u   61.1219n  571.4526m 
  503.00000m    1.7635u   62.8614n  571.4526m 
  504.00000m    1.8126u   64.6494n  571.4526m 
  505.00000m    1.8629u   66.4870n  571.4526m 
  506.00000m    1.9146u   68.3757n  571.4526m 
  507.00000m    1.9677u   70.3167n  571.4526m 
  508.00000m    2.0222u   72.3116n  571.4526m 
  509.00000m    2.0782u   74.3616n  571.4526m 
  510.00000m    2.1356u   76.4684n  571.4526m 
  511.00000m    2.1946u   78.6334n  571.4526m 
  512.00000m    2.2552u   80.8582n  571.4526m 
  513.00000m    2.3173u   83.1443n  571.4526m 
  514.00000m    2.3811u   85.4934n  571.4526m 
  515.00000m    2.4466u   87.9071n  571.4526m 
  516.00000m    2.5138u   90.3872n  571.4526m 
  517.00000m    2.5828u   92.9354n  571.4526m 
  518.00000m    2.6537u   95.5534n  571.4526m 
  519.00000m    2.7263u   98.2433n  571.4526m 
  520.00000m    2.8009u  101.0067n  571.4526m 
  521.00000m    2.8775u  103.8458n  571.4526m 
  522.00000m    2.9560u  106.7623n  571.4526m 
  523.00000m    3.0366u  109.7585n  571.4526m 
  524.00000m    3.1193u  112.8362n  571.4526m 
  525.00000m    3.2041u  115.9978n  571.4526m 
  526.00000m    3.2912u  119.2452n  571.4526m 
  527.00000m    3.3805u  122.5809n  571.4526m 
  528.00000m    3.4721u  126.0070n  571.4526m 
  529.00000m    3.5661u  129.5260n  571.4526m 
  530.00000m    3.6626u  133.1401n  571.4526m 
  531.00000m    3.7615u  136.8519n  571.4526m 
  532.00000m    3.8629u  140.6639n  571.4526m 
  533.00000m    3.9670u  144.5786n  571.4526m 
  534.00000m    4.0737u  148.5987n  571.4526m 
  535.00000m    4.1831u  152.7269n  571.4526m 
  536.00000m    4.2954u  156.9659n  571.4526m 
  537.00000m    4.4105u  161.3186n  571.4526m 
  538.00000m    4.5285u  165.7879n  571.4526m 
  539.00000m    4.6495u  170.3766n  571.4526m 
  540.00000m    4.7736u  175.0879n  571.4526m 
  541.00000m    4.9009u  179.9249n  571.4526m 
  542.00000m    5.0313u  184.8907n  571.4526m 
  543.00000m    5.1650u  189.9885n  571.4526m 
  544.00000m    5.3021u  195.2218n  571.4526m 
  545.00000m    5.4426u  200.5938n  571.4526m 
  546.00000m    5.5866u  206.1081n  571.4526m 
  547.00000m    5.7342u  211.7682n  571.4526m 
  548.00000m    5.8855u  217.5778n  571.4526m 
  549.00000m    6.0406u  223.5405n  571.4526m 
  550.00000m    6.1995u  229.6602n  571.4526m 
  551.00000m    6.3623u  235.9408n  571.4526m 
  552.00000m    6.5292u  242.3862n  571.4526m 
  553.00000m    6.7002u  249.0005n  571.4526m 
  554.00000m    6.8753u  255.7879n  571.4526m 
  555.00000m    7.0548u  262.7526n  571.4526m 
  556.00000m    7.2387u  269.8990n  571.4526m 
  557.00000m    7.4270u  277.2315n  571.4526m 
  558.00000m    7.6200u  284.7546n  571.4526m 
  559.00000m    7.8176u  292.4729n  571.4526m 
  560.00000m    8.0200u  300.3913n  571.4526m 
  561.00000m    8.2274u  308.5146n  571.4526m 
  562.00000m    8.4397u  316.8477n  571.4526m 
  563.00000m    8.6571u  325.3956n  571.4526m 
  564.00000m    8.8798u  334.1636n  571.4526m 
  565.00000m    9.1078u  343.1569n  571.4526m 
  566.00000m    9.3412u  352.3809n  571.4526m 
  567.00000m    9.5802u  361.8412n  571.4526m 
  568.00000m    9.8249u  371.5432n  571.4526m 
  569.00000m   10.0754u  381.4929n  571.4526m 
  570.00000m   10.3319u  391.6960n  571.4526m 
  571.00000m   10.5943u  402.1586n  571.4526m 
  572.00000m   10.8630u  412.8867n  571.4526m 
  573.00000m   11.1380u  423.8866n  571.4526m 
  574.00000m   11.4194u  435.1647n  571.4526m 
  575.00000m   11.7074u  446.7275n  571.4526m 
  576.00000m   12.0021u  458.5816n  571.4526m 
  577.00000m   12.3036u  470.7338n  571.4526m 
  578.00000m   12.6122u  483.1911n  571.4526m 
  579.00000m   12.9278u  495.9604n  571.4526m 
  580.00000m   13.2508u  509.0491n  571.4526m 
  581.00000m   13.5812u  522.4644n  571.4526m 
  582.00000m   13.9191u  536.2138n  571.4526m 
  583.00000m   14.2648u  550.3051n  571.4526m 
  584.00000m   14.6184u  564.7459n  571.4526m 
  585.00000m   14.9800u  579.5443n  571.4526m 
  586.00000m   15.3498u  594.7084n  571.4526m 
  587.00000m   15.7280u  610.2465n  571.4526m 
  588.00000m   16.1147u  626.1671n  571.4526m 
  589.00000m   16.5101u  642.4786n  571.4526m 
  590.00000m   16.9144u  659.1900n  571.4526m 
  591.00000m   17.3277u  676.3102n  571.4526m 
  592.00000m   17.7503u  693.8483n  571.4526m 
  593.00000m   18.1822u  711.8137n  571.4526m 
  594.00000m   18.6237u  730.2157n  571.4526m 
  595.00000m   19.0750u  749.0642n  571.4526m 
  596.00000m   19.5363u  768.3688n  571.4526m 
  597.00000m   20.0077u  788.1398n  571.4526m 
  598.00000m   20.4894u  808.3874n  571.4526m 
  599.00000m   20.9817u  829.1219n  571.4526m 
  600.00000m   21.4847u  850.3540n  571.4526m 
  601.00000m   21.9986u  872.0945n  571.4526m 
  602.00000m   22.5237u  894.3545n  571.4526m 
  603.00000m   23.0601u  917.1452n  571.4526m 
  604.00000m   23.6080u  940.4781n  571.4526m 
  605.00000m   24.1678u  964.3649n  571.4526m 
  606.00000m   24.7395u  988.8173n  571.4526m 
  607.00000m   25.3235u    1.0138u  571.4526m 
  608.00000m   25.9199u    1.0395u  571.4526m 
  609.00000m   26.5289u    1.0657u  571.4526m 
  610.00000m   27.1509u    1.0925u  571.4526m 
  611.00000m   27.7859u    1.1200u  571.4526m 
  612.00000m   28.4343u    1.1481u  571.4526m 
  613.00000m   29.0964u    1.1769u  571.4527m 
  614.00000m   29.7722u    1.2063u  571.4527m 
  615.00000m   30.4622u    1.2364u  571.4527m 
  616.00000m   31.1665u    1.2672u  571.4527m 
  617.00000m   31.8854u    1.2988u  571.4527m 
  618.00000m   32.6192u    1.3310u  571.4527m 
  619.00000m   33.3681u    1.3640u  571.4527m 
  620.00000m   34.1323u    1.3977u  571.4527m 
  621.00000m   34.9123u    1.4323u  571.4527m 
  622.00000m   35.7081u    1.4676u  571.4527m 
  623.00000m   36.5201u    1.5037u  571.4527m 
  624.00000m   37.3486u    1.5406u  571.4527m 
  625.00000m   38.1939u    1.5784u  571.4527m 
  626.00000m   39.0562u    1.6170u  571.4527m 
  627.00000m   39.9358u    1.6565u  571.4527m 
  628.00000m   40.8330u    1.6969u  571.4527m 
  629.00000m   41.7482u    1.7382u  571.4527m 
  630.00000m   42.6816u    1.7804u  571.4527m 
  631.00000m   43.6336u    1.8235u  571.4527m 
  632.00000m   44.6044u    1.8677u  571.4527m 
  633.00000m   45.5943u    1.9128u  571.4527m 
  634.00000m   46.6037u    1.9589u  571.4527m 
  635.00000m   47.6329u    2.0060u  571.4527m 
  636.00000m   48.6822u    2.0541u  571.4527m 
  637.00000m   49.7519u    2.1033u  571.4527m 
  638.00000m   50.8424u    2.1536u  571.4527m 
  639.00000m   51.9541u    2.2050u  571.4527m 
  640.00000m   53.0872u    2.2575u  571.4527m 
  641.00000m   54.2420u    2.3112u  571.4527m 
  642.00000m   55.4191u    2.3660u  571.4527m 
  643.00000m   56.6186u    2.4221u  571.4527m 
  644.00000m   57.8409u    2.4793u  571.4527m 
  645.00000m   59.0865u    2.5377u  571.4527m 
  646.00000m   60.3557u    2.5975u  571.4528m 
  647.00000m   61.6488u    2.6585u  571.4528m 
  648.00000m   62.9662u    2.7208u  571.4528m 
  649.00000m   64.3083u    2.7844u  571.4528m 
  650.00000m   65.6755u    2.8494u  571.4528m 
  651.00000m   67.0681u    2.9158u  571.4528m 
  652.00000m   68.4866u    2.9835u  571.4528m 
  653.00000m   69.9313u    3.0527u  571.4528m 
  654.00000m   71.4026u    3.1234u  571.4528m 
  655.00000m   72.9010u    3.1955u  571.4528m 
  656.00000m   74.4268u    3.2692u  571.4528m 
  657.00000m   75.9804u    3.3444u  571.4528m 
  658.00000m   77.5623u    3.4212u  571.4528m 
  659.00000m   79.1728u    3.4995u  571.4528m 
  660.00000m   80.8124u    3.5795u  571.4528m 
  661.00000m   82.4815u    3.6612u  571.4528m 
  662.00000m   84.1805u    3.7445u  571.4528m 
  663.00000m   85.9098u    3.8295u  571.4528m 
  664.00000m   87.6700u    3.9163u  571.4528m 
  665.00000m   89.4613u    4.0049u  571.4529m 
  666.00000m   91.2843u    4.0952u  571.4529m 
  667.00000m   93.1393u    4.1874u  571.4529m 
  668.00000m   95.0269u    4.2815u  571.4529m 
  669.00000m   96.9475u    4.3775u  571.4529m 
  670.00000m   98.9015u    4.4754u  571.4529m 
  671.00000m  100.8893u    4.5753u  571.4529m 
  672.00000m  102.9115u    4.6772u  571.4529m 
  673.00000m  104.9684u    4.7811u  571.4529m 
  674.00000m  107.0606u    4.8871u  571.4529m 
  675.00000m  109.1884u    4.9953u  571.4529m 
  676.00000m  111.3525u    5.1055u  571.4529m 
  677.00000m  113.5531u    5.2180u  571.4529m 
  678.00000m  115.7908u    5.3326u  571.4529m 
  679.00000m  118.0661u    5.4496u  571.4530m 
  680.00000m  120.3793u    5.5688u  571.4530m 
  681.00000m  122.7311u    5.6903u  571.4530m 
  682.00000m  125.1218u    5.8142u  571.4530m 
  683.00000m  127.5519u    5.9406u  571.4530m 
  684.00000m  130.0219u    6.0693u  571.4530m 
  685.00000m  132.5323u    6.2006u  571.4530m 
  686.00000m  135.0835u    6.3344u  571.4530m 
  687.00000m  137.6760u    6.4708u  571.4530m 
  688.00000m  140.3102u    6.6098u  571.4530m 
  689.00000m  142.9868u    6.7514u  571.4530m 
  690.00000m  145.7060u    6.8957u  571.4531m 
  691.00000m  148.4684u    7.0428u  571.4531m 
  692.00000m  151.2744u    7.1927u  571.4531m 
  693.00000m  154.1245u    7.3454u  571.4531m 
  694.00000m  157.0192u    7.5009u  571.4531m 
  695.00000m  159.9590u    7.6594u  571.4531m 
  696.00000m  162.9442u    7.8208u  571.4531m 
  697.00000m  165.9754u    7.9853u  571.4531m 
  698.00000m  169.0529u    8.1528u  571.4531m 
  699.00000m  172.1773u    8.3234u  571.4532m 
  700.00000m  175.3490u    8.4971u  571.4532m 
  701.00000m  178.5684u    8.6741u  571.4532m 
  702.00000m  181.8360u    8.8543u  571.4532m 
  703.00000m  185.1522u    9.0377u  571.4532m 
  704.00000m  188.5174u    9.2246u  571.4532m 
  705.00000m  191.9320u    9.4148u  571.4532m 
  706.00000m  195.3966u    9.6084u  571.4532m 
  707.00000m  198.9114u    9.8055u  571.4533m 
  708.00000m  202.4769u   10.0062u  571.4533m 
  709.00000m  206.0934u   10.2105u  571.4533m 
  710.00000m  209.7615u   10.4184u  571.4533m 
  711.00000m  213.4814u   10.6300u  571.4533m 
  712.00000m  217.2535u   10.8453u  571.4533m 
  713.00000m  221.0782u   11.0645u  571.4534m 
  714.00000m  224.9559u   11.2875u  571.4534m 
  715.00000m  228.8870u   11.5144u  571.4534m 
  716.00000m  232.8716u   11.7452u  571.4534m 
  717.00000m  236.9103u   11.9801u  571.4534m 
  718.00000m  241.0033u   12.2190u  571.4534m 
  719.00000m  245.1509u   12.4621u  571.4535m 
  720.00000m  249.3534u   12.7093u  571.4535m 
  721.00000m  253.6112u   12.9608u  571.4535m 
  722.00000m  257.9245u   13.2165u  571.4535m 
  723.00000m  262.2936u   13.4766u  571.4535m 
  724.00000m  266.7187u   13.7411u  571.4535m 
  725.00000m  271.2001u   14.0100u  571.4536m 
  726.00000m  275.7380u   14.2834u  571.4536m 
  727.00000m  280.3326u   14.5614u  571.4536m 
  728.00000m  284.9842u   14.8441u  571.4536m 
  729.00000m  289.6929u   15.1314u  571.4536m 
  730.00000m  294.4589u   15.4234u  571.4537m 
  731.00000m  299.2824u   15.7202u  571.4537m 
  732.00000m  304.1636u   16.0219u  571.4537m 
  733.00000m  309.1025u   16.3285u  571.4537m 
  734.00000m  314.0993u   16.6401u  571.4537m 
  735.00000m  319.1542u   16.9567u  571.4538m 
  736.00000m  324.2671u   17.2783u  571.4538m 
  737.00000m  329.4381u   17.6051u  571.4538m 
  738.00000m  334.6674u   17.9372u  571.4538m 
  739.00000m  339.9550u   18.2744u  571.4539m 
  740.00000m  345.3008u   18.6170u  571.4539m 
  741.00000m  350.7049u   18.9650u  571.4539m 
  742.00000m  356.1673u   19.3183u  571.4539m 
  743.00000m  361.6879u   19.6772u  571.4540m 
  744.00000m  367.2668u   20.0417u  571.4540m 
  745.00000m  372.9038u   20.4117u  571.4540m 
  746.00000m  378.5989u   20.7874u  571.4540m 
  747.00000m  384.3519u   21.1688u  571.4541m 
  748.00000m  390.1628u   21.5560u  571.4541m 
  749.00000m  396.0313u   21.9490u  571.4541m 
  750.00000m  401.9575u   22.3480u  571.4542m 
  751.00000m  407.9409u   22.7529u  571.4542m 
  752.00000m  413.9816u   23.1638u  571.4542m 
  753.00000m  420.0793u   23.5807u  571.4542m 
  754.00000m  426.2336u   24.0038u  571.4543m 
  755.00000m  432.4445u   24.4331u  571.4543m 
  756.00000m  438.7115u   24.8686u  571.4543m 
  757.00000m  445.0345u   25.3104u  571.4544m 
  758.00000m  451.4131u   25.7585u  571.4544m 
  759.00000m  457.8470u   26.2131u  571.4544m 
  760.00000m  464.3358u   26.6741u  571.4545m 
  761.00000m  470.8791u   27.1416u  571.4545m 
  762.00000m  477.4766u   27.6157u  571.4545m 
  763.00000m  484.1279u   28.0964u  571.4546m 
  764.00000m  490.8325u   28.5838u  571.4546m 
  765.00000m  497.5900u   29.0779u  571.4546m 
  766.00000m  504.3999u   29.5788u  571.4547m 
  767.00000m  511.2618u   30.0866u  571.4547m 
  768.00000m  518.1751u   30.6012u  571.4547m 
  769.00000m  525.1393u   31.1228u  571.4548m 
  770.00000m  532.1539u   31.6513u  571.4548m 
  771.00000m  539.2183u   32.1869u  571.4548m 
  772.00000m  546.3319u   32.7295u  571.4549m 
  773.00000m  553.4942u   33.2793u  571.4549m 
  774.00000m  560.7044u   33.8363u  571.4550m 
  775.00000m  567.9621u   34.4006u  571.4550m 
  776.00000m  575.2665u   34.9720u  571.4550m 
  777.00000m  582.6170u   35.5509u  571.4551m 
  778.00000m  590.0129u   36.1371u  571.4551m 
  779.00000m  597.4535u   36.7307u  571.4552m 
  780.00000m  604.9380u   37.3317u  571.4552m 
  781.00000m  612.4658u   37.9403u  571.4553m 
  782.00000m  620.0361u   38.5564u  571.4553m 
  783.00000m  627.6481u   39.1801u  571.4553m 
  784.00000m  635.3011u   39.8114u  571.4554m 
  785.00000m  642.9943u   40.4504u  571.4554m 
  786.00000m  650.7268u   41.0971u  571.4555m 
  787.00000m  658.4979u   41.7516u  571.4555m 
  788.00000m  666.3067u   42.4138u  571.4556m 
  789.00000m  674.1523u   43.0839u  571.4556m 
  790.00000m  682.0340u   43.7618u  571.4557m 
  791.00000m  689.9508u   44.4477u  571.4557m 
  792.00000m  697.9018u   45.1414u  571.4558m 
  793.00000m  705.8863u   45.8431u  571.4558m 
  794.00000m  713.9031u   46.5529u  571.4559m 
  795.00000m  721.9515u   47.2706u  571.4559m 
  796.00000m  730.0306u   47.9964u  571.4560m 
  797.00000m  738.1393u   48.7303u  571.4560m 
  798.00000m  746.2768u   49.4723u  571.4561m 
  799.00000m  754.4421u   50.2225u  571.4561m 
  800.00000m  762.6342u   50.9808u  571.4562m 
  801.00000m  770.8521u   51.7473u  571.4562m 
  802.00000m  779.0950u   52.5221u  571.4563m 
  803.00000m  787.3619u   53.3051u  571.4563m 
  804.00000m  795.6516u   54.0964u  571.4564m 
  805.00000m  803.9633u   54.8960u  571.4565m 
  806.00000m  812.2960u   55.7039u  571.4565m 
  807.00000m  820.6486u   56.5201u  571.4566m 
  808.00000m  829.0202u   57.3447u  571.4566m 
  809.00000m  837.4097u   58.1776u  571.4567m 
  810.00000m  845.8162u   59.0190u  571.4567m 
  811.00000m  854.2387u   59.8688u  571.4568m 
  812.00000m  862.6760u   60.7270u  571.4569m 
  813.00000m  871.1273u   61.5936u  571.4569m 
  814.00000m  879.5915u   62.4687u  571.4570m 
  815.00000m  888.0675u   63.3523u  571.4571m 
  816.00000m  896.5545u   64.2443u  571.4571m 
  817.00000m  905.0513u   65.1448u  571.4572m 
  818.00000m  913.5569u   66.0538u  571.4572m 
  819.00000m  922.0704u   66.9713u  571.4573m 
  820.00000m  930.5908u   67.8973u  571.4574m 
  821.00000m  939.1170u   68.8319u  571.4574m 
  822.00000m  947.6480u   69.7750u  571.4575m 
  823.00000m  956.1828u   70.7266u  571.4576m 
  824.00000m  964.7205u   71.6867u  571.4576m 
  825.00000m  973.2601u   72.6553u  571.4577m 
  826.00000m  981.8005u   73.6325u  571.4578m 
  827.00000m  990.3409u   74.6183u  571.4579m 
  828.00000m  998.8802u   75.6125u  571.4579m 
  829.00000m    1.0074m   76.6153u  571.4580m 
  830.00000m    1.0160m   77.6266u  571.4581m 
  831.00000m    1.0245m   78.6465u  571.4581m 
  832.00000m    1.0330m   79.6749u  571.4582m 
  833.00000m    1.0415m   80.7117u  571.4583m 
  834.00000m    1.0500m   81.7571u  571.4584m 
  835.00000m    1.0585m   82.8110u  571.4584m 
  836.00000m    1.0670m   83.8734u  571.4585m 
  837.00000m    1.0755m   84.9443u  571.4586m 
  838.00000m    1.0840m   86.0237u  571.4587m 
  839.00000m    1.0925m   87.1115u  571.4587m 
  840.00000m    1.1009m   88.2078u  571.4588m 
  841.00000m    1.1094m   89.3125u  571.4589m 
  842.00000m    1.1178m   90.4256u  571.4590m 
  843.00000m    1.1262m   91.5472u  571.4591m 
  844.00000m    1.1346m   92.6771u  571.4591m 
  845.00000m    1.1430m   93.8154u  571.4592m 
  846.00000m    1.1513m   94.9621u  571.4593m 
  847.00000m    1.1597m   96.1172u  571.4594m 
  848.00000m    1.1680m   97.2806u  571.4595m 
  849.00000m    1.1763m   98.4522u  571.4595m 
  850.00000m    1.1846m   99.6322u  571.4596m 
  851.00000m    1.1929m  100.8205u  571.4597m 
  852.00000m    1.2011m  102.0170u  571.4598m 
  853.00000m    1.2093m  103.2217u  571.4599m 
  854.00000m    1.2175m  104.4346u  571.4600m 
  855.00000m    1.2257m  105.6557u  571.4601m 
  856.00000m    1.2339m  106.8849u  571.4601m 
  857.00000m    1.2420m  108.1223u  571.4602m 
  858.00000m    1.2501m  109.3678u  571.4603m 
  859.00000m    1.2582m  110.6214u  571.4604m 
  860.00000m    1.2662m  111.8830u  571.4605m 
  861.00000m    1.2742m  113.1527u  571.4606m 
  862.00000m    1.2822m  114.4303u  571.4607m 
  863.00000m    1.2902m  115.7159u  571.4608m 
  864.00000m    1.2981m  117.0095u  571.4609m 
  865.00000m    1.3060m  118.3109u  571.4609m 
  866.00000m    1.3139m  119.6203u  571.4610m 
  867.00000m    1.3217m  120.9375u  571.4611m 
  868.00000m    1.3295m  122.2625u  571.4612m 
  869.00000m    1.3373m  123.5953u  571.4613m 
  870.00000m    1.3451m  124.9358u  571.4614m 
  871.00000m    1.3528m  126.2841u  571.4615m 
  872.00000m    1.3604m  127.6401u  571.4616m 
  873.00000m    1.3681m  129.0037u  571.4617m 
  874.00000m    1.3757m  130.3749u  571.4618m 
  875.00000m    1.3833m  131.7537u  571.4619m 
  876.00000m    1.3908m  133.1401u  571.4620m 
  877.00000m    1.3983m  134.5340u  571.4621m 
  878.00000m    1.4058m  135.9354u  571.4622m 
  879.00000m    1.4132m  137.3442u  571.4623m 
  880.00000m    1.4206m  138.7604u  571.4624m 
  881.00000m    1.4280m  140.1840u  571.4625m 
  882.00000m    1.4353m  141.6149u  571.4626m 
  883.00000m    1.4426m  143.0531u  571.4627m 
  884.00000m    1.4498m  144.4986u  571.4628m 
  885.00000m    1.4571m  145.9513u  571.4629m 
  886.00000m    1.4642m  147.4112u  571.4630m 
  887.00000m    1.4714m  148.8782u  571.4631m 
  888.00000m    1.4784m  150.3523u  571.4632m 
  889.00000m    1.4855m  151.8335u  571.4633m 
  890.00000m    1.4925m  153.3218u  571.4634m 
  891.00000m    1.4995m  154.8170u  571.4635m 
  892.00000m    1.5064m  156.3191u  571.4636m 
  893.00000m    1.5133m  157.8282u  571.4637m 
  894.00000m    1.5202m  159.3442u  571.4639m 
  895.00000m    1.5270m  160.8669u  571.4640m 
  896.00000m    1.5338m  162.3965u  571.4641m 
  897.00000m    1.5405m  163.9328u  571.4642m 
  898.00000m    1.5472m  165.4758u  571.4643m 
  899.00000m    1.5539m  167.0255u  571.4644m 
  900.00000m    1.5605m  168.5818u  571.4645m 
  901.00000m    1.5671m  170.1448u  571.4646m 
  902.00000m    1.5736m  171.7142u  571.4647m 
  903.00000m    1.5801m  173.2902u  571.4648m 
  904.00000m    1.5865m  174.8726u  571.4650m 
  905.00000m    1.5929m  176.4614u  571.4651m 
  906.00000m    1.5993m  178.0566u  571.4652m 
  907.00000m    1.6056m  179.6582u  571.4653m 
  908.00000m    1.6119m  181.2660u  571.4654m 
  909.00000m    1.6182m  182.8802u  571.4655m 
  910.00000m    1.6244m  184.5005u  571.4656m 
  911.00000m    1.6305m  186.1270u  571.4657m 
  912.00000m    1.6366m  187.7596u  571.4659m 
  913.00000m    1.6427m  189.3984u  571.4660m 
  914.00000m    1.6488m  191.0432u  571.4661m 
  915.00000m    1.6548m  192.6940u  571.4662m 
  916.00000m    1.6607m  194.3507u  571.4663m 
  917.00000m    1.6666m  196.0134u  571.4664m 
  918.00000m    1.6725m  197.6820u  571.4666m 
  919.00000m    1.6783m  199.3564u  571.4667m 
  920.00000m    1.6841m  201.0367u  571.4668m 
  921.00000m    1.6899m  202.7227u  571.4669m 
  922.00000m    1.6956m  204.4144u  571.4670m 
  923.00000m    1.7013m  206.1118u  571.4672m 
  924.00000m    1.7069m  207.8148u  571.4673m 
  925.00000m    1.7125m  209.5235u  571.4674m 
  926.00000m    1.7180m  211.2377u  571.4675m 
  927.00000m    1.7235m  212.9574u  571.4676m 
  928.00000m    1.7290m  214.6826u  571.4678m 
  929.00000m    1.7344m  216.4133u  571.4679m 
  930.00000m    1.7398m  218.1493u  571.4680m 
  931.00000m    1.7452m  219.8907u  571.4681m 
  932.00000m    1.7505m  221.6375u  571.4683m 
  933.00000m    1.7557m  223.3895u  571.4684m 
  934.00000m    1.7610m  225.1467u  571.4685m 
  935.00000m    1.7662m  226.9092u  571.4686m 
  936.00000m    1.7713m  228.6768u  571.4688m 
  937.00000m    1.7764m  230.4496u  571.4689m 
  938.00000m    1.7815m  232.2274u  571.4690m 
  939.00000m    1.7865m  234.0103u  571.4691m 
  940.00000m    1.7915m  235.7982u  571.4693m 
  941.00000m    1.7965m  237.5910u  571.4694m 
  942.00000m    1.8014m  239.3888u  571.4695m 
  943.00000m    1.8063m  241.1915u  571.4696m 
  944.00000m    1.8111m  242.9991u  571.4698m 
  945.00000m    1.8159m  244.8114u  571.4699m 
  946.00000m    1.8207m  246.6286u  571.4700m 
  947.00000m    1.8254m  248.4505u  571.4702m 
  948.00000m    1.8301m  250.2771u  571.4703m 
  949.00000m    1.8348m  252.1084u  571.4704m 
  950.00000m    1.8394m  253.9443u  571.4706m 
  951.00000m    1.8440m  255.7848u  571.4707m 
  952.00000m    1.8486m  257.6299u  571.4708m 
  953.00000m    1.8531m  259.4795u  571.4709m 
  954.00000m    1.8576m  261.3336u  571.4711m 
  955.00000m    1.8620m  263.1921u  571.4712m 
  956.00000m    1.8664m  265.0551u  571.4713m 
  957.00000m    1.8708m  266.9225u  571.4715m 
  958.00000m    1.8751m  268.7942u  571.4716m 
  959.00000m    1.8794m  270.6702u  571.4717m 
  960.00000m    1.8837m  272.5505u  571.4719m 
  961.00000m    1.8879m  274.4350u  571.4720m 
  962.00000m    1.8921m  276.3238u  571.4721m 
  963.00000m    1.8963m  278.2167u  571.4723m 
  964.00000m    1.9004m  280.1138u  571.4724m 
  965.00000m    1.9045m  282.0150u  571.4725m 
  966.00000m    1.9086m  283.9203u  571.4727m 
  967.00000m    1.9126m  285.8296u  571.4728m 
  968.00000m    1.9166m  287.7430u  571.4729m 
  969.00000m    1.9206m  289.6603u  571.4731m 
  970.00000m    1.9246m  291.5815u  571.4732m 
  971.00000m    1.9285m  293.5067u  571.4734m 
  972.00000m    1.9323m  295.4358u  571.4735m 
  973.00000m    1.9362m  297.3687u  571.4736m 
  974.00000m    1.9400m  299.3055u  571.4738m 
  975.00000m    1.9438m  301.2460u  571.4739m 
  976.00000m    1.9475m  303.1903u  571.4740m 
  977.00000m    1.9512m  305.1383u  571.4742m 
  978.00000m    1.9549m  307.0901u  571.4743m 
  979.00000m    1.9586m  309.0455u  571.4745m 
  980.00000m    1.9622m  311.0045u  571.4746m 
  981.00000m    1.9658m  312.9671u  571.4747m 
  982.00000m    1.9694m  314.9334u  571.4749m 
  983.00000m    1.9729m  316.9031u  571.4750m 
  984.00000m    1.9764m  318.8764u  571.4751m 
  985.00000m    1.9799m  320.8532u  571.4753m 
  986.00000m    1.9834m  322.8335u  571.4754m 
  987.00000m    1.9868m  324.8172u  571.4756m 
  988.00000m    1.9902m  326.8043u  571.4757m 
  989.00000m    1.9936m  328.7947u  571.4759m 
  990.00000m    1.9969m  330.7886u  571.4760m 
  991.00000m    2.0002m  332.7857u  571.4761m 
  992.00000m    2.0035m  334.7862u  571.4763m 
  993.00000m    2.0068m  336.7899u  571.4764m 
  994.00000m    2.0100m  338.7969u  571.4766m 
  995.00000m    2.0132m  340.8071u  571.4767m 
  996.00000m    2.0164m  342.8204u  571.4768m 
  997.00000m    2.0196m  344.8370u  571.4770m 
  998.00000m    2.0227m  346.8566u  571.4771m 
  999.00000m    2.0258m  348.8794u  571.4773m 
    1.00000     2.0289m  350.9053u  571.4774m 
    1.00100     2.0319m  352.9342u  571.4776m 
    1.00200     2.0350m  354.9662u  571.4777m 
    1.00300     2.0380m  357.0012u  571.4778m 
    1.00400     2.0410m  359.0392u  571.4780m 
    1.00500     2.0439m  361.0801u  571.4781m 
    1.00600     2.0468m  363.1240u  571.4783m 
    1.00700     2.0497m  365.1708u  571.4784m 
    1.00800     2.0526m  367.2205u  571.4786m 
    1.00900     2.0555m  369.2730u  571.4787m 
    1.01000     2.0583m  371.3284u  571.4789m 
    1.01100     2.0611m  373.3866u  571.4790m 
    1.01200     2.0639m  375.4476u  571.4792m 
    1.01300     2.0667m  377.5114u  571.4793m 
    1.01400     2.0694m  379.5779u  571.4794m 
    1.01500     2.0722m  381.6472u  571.4796m 
    1.01600     2.0749m  383.7192u  571.4797m 
    1.01700     2.0775m  385.7938u  571.4799m 
    1.01800     2.0802m  387.8712u  571.4800m 
    1.01900     2.0828m  389.9511u  571.4802m 
    1.02000     2.0854m  392.0337u  571.4803m 
    1.02100     2.0880m  394.1189u  571.4805m 
    1.02200     2.0906m  396.2066u  571.4806m 
    1.02300     2.0932m  398.2970u  571.4808m 
    1.02400     2.0957m  400.3898u  571.4809m 
    1.02500     2.0982m  402.4852u  571.4811m 
    1.02600     2.1007m  404.5830u  571.4812m 
    1.02700     2.1032m  406.6834u  571.4814m 
    1.02800     2.1056m  408.7862u  571.4815m 
    1.02900     2.1080m  410.8914u  571.4817m 
    1.03000     2.1104m  412.9990u  571.4818m 
    1.03100     2.1128m  415.1091u  571.4820m 
    1.03200     2.1152m  417.2215u  571.4821m 
    1.03300     2.1176m  419.3363u  571.4823m 
    1.03400     2.1199m  421.4534u  571.4824m 
    1.03500     2.1222m  423.5728u  571.4826m 
    1.03600     2.1245m  425.6945u  571.4827m 
    1.03700     2.1268m  427.8185u  571.4829m 
    1.03800     2.1290m  429.9448u  571.4830m 
    1.03900     2.1313m  432.0733u  571.4832m 
    1.04000     2.1335m  434.2041u  571.4833m 
    1.04100     2.1357m  436.3371u  571.4835m 
    1.04200     2.1379m  438.4722u  571.4836m 
    1.04300     2.1401m  440.6095u  571.4838m 
    1.04400     2.1422m  442.7490u  571.4839m 
    1.04500     2.1444m  444.8906u  571.4841m 
    1.04600     2.1465m  447.0344u  571.4842m 
    1.04700     2.1486m  449.1803u  571.4844m 
    1.04800     2.1507m  451.3282u  571.4845m 
    1.04900     2.1527m  453.4782u  571.4847m 
    1.05000     2.1548m  455.6303u  571.4848m 
    1.05100     2.1568m  457.7844u  571.4850m 
    1.05200     2.1588m  459.9406u  571.4851m 
    1.05300     2.1608m  462.0987u  571.4853m 
    1.05400     2.1628m  464.2589u  571.4854m 
    1.05500     2.1648m  466.4210u  571.4856m 
    1.05600     2.1668m  468.5851u  571.4858m 
    1.05700     2.1687m  470.7511u  571.4859m 
    1.05800     2.1706m  472.9191u  571.4861m 
    1.05900     2.1725m  475.0889u  571.4862m 
    1.06000     2.1744m  477.2607u  571.4864m 
    1.06100     2.1763m  479.4344u  571.4865m 
    1.06200     2.1782m  481.6099u  571.4867m 
    1.06300     2.1800m  483.7873u  571.4868m 
    1.06400     2.1819m  485.9665u  571.4870m 
    1.06500     2.1837m  488.1476u  571.4871m 
    1.06600     2.1855m  490.3305u  571.4873m 
    1.06700     2.1873m  492.5151u  571.4874m 
    1.06800     2.1891m  494.7016u  571.4876m 
    1.06900     2.1908m  496.8898u  571.4878m 
    1.07000     2.1926m  499.0798u  571.4879m 
    1.07100     2.1943m  501.2715u  571.4881m 
    1.07200     2.1961m  503.4650u  571.4882m 
    1.07300     2.1978m  505.6601u  571.4884m 
    1.07400     2.1995m  507.8570u  571.4885m 
    1.07500     2.2012m  510.0556u  571.4887m 
    1.07600     2.2028m  512.2558u  571.4888m 
    1.07700     2.2045m  514.4577u  571.4890m 
    1.07800     2.2061m  516.6613u  571.4892m 
    1.07900     2.2078m  518.8665u  571.4893m 
    1.08000     2.2094m  521.0733u  571.4895m 
    1.08100     2.2110m  523.2818u  571.4896m 
    1.08200     2.2126m  525.4918u  571.4898m 
    1.08300     2.2142m  527.7035u  571.4899m 
    1.08400     2.2158m  529.9167u  571.4901m 
    1.08500     2.2173m  532.1314u  571.4902m 
    1.08600     2.2189m  534.3478u  571.4904m 
    1.08700     2.2204m  536.5656u  571.4906m 
    1.08800     2.2219m  538.7850u  571.4907m 
    1.08900     2.2235m  541.0059u  571.4909m 
    1.09000     2.2250m  543.2284u  571.4910m 
    1.09100     2.2265m  545.4523u  571.4912m 
    1.09200     2.2279m  547.6777u  571.4914m 
    1.09300     2.2294m  549.9046u  571.4915m 
    1.09400     2.2309m  552.1329u  571.4917m 
    1.09500     2.2323m  554.3627u  571.4918m 
    1.09600     2.2338m  556.5939u  571.4920m 
    1.09700     2.2352m  558.8266u  571.4921m 
    1.09800     2.2366m  561.0606u  571.4923m 
    1.09900     2.2380m  563.2961u  571.4925m 
    1.10000     2.2394m  565.5330u  571.4926m 
    1.10100     2.2408m  567.7712u  571.4928m 
    1.10200     2.2421m  570.0109u  571.4929m 
    1.10300     2.2435m  572.2519u  571.4931m 
    1.10400     2.2449m  574.4942u  571.4932m 
    1.10500     2.2462m  576.7379u  571.4934m 
    1.10600     2.2475m  578.9830u  571.4936m 
    1.10700     2.2489m  581.2293u  571.4937m 
    1.10800     2.2502m  583.4770u  571.4939m 
    1.10900     2.2515m  585.7260u  571.4940m 
    1.11000     2.2528m  587.9763u  571.4942m 
    1.11100     2.2540m  590.2278u  571.4944m 
    1.11200     2.2553m  592.4807u  571.4945m 
    1.11300     2.2566m  594.7348u  571.4947m 
    1.11400     2.2578m  596.9901u  571.4948m 
    1.11500     2.2591m  599.2467u  571.4950m 
    1.11600     2.2603m  601.5046u  571.4952m 
    1.11700     2.2615m  603.7637u  571.4953m 
    1.11800     2.2628m  606.0240u  571.4955m 
    1.11900     2.2640m  608.2855u  571.4956m 
    1.12000     2.2652m  610.5482u  571.4958m 
    1.12100     2.2664m  612.8121u  571.4960m 
    1.12200     2.2676m  615.0772u  571.4961m 
    1.12300     2.2687m  617.3435u  571.4963m 
    1.12400     2.2699m  619.6109u  571.4964m 
    1.12500     2.2710m  621.8795u  571.4966m 
    1.12600     2.2722m  624.1492u  571.4968m 
    1.12700     2.2733m  626.4201u  571.4969m 
    1.12800     2.2745m  628.6921u  571.4971m 
    1.12900     2.2756m  630.9653u  571.4972m 
    1.13000     2.2767m  633.2395u  571.4974m 
    1.13100     2.2778m  635.5149u  571.4976m 
    1.13200     2.2789m  637.7913u  571.4977m 
    1.13300     2.2800m  640.0689u  571.4979m 
    1.13400     2.2811m  642.3475u  571.4981m 
    1.13500     2.2822m  644.6273u  571.4982m 
    1.13600     2.2832m  646.9081u  571.4984m 
    1.13700     2.2843m  649.1899u  571.4985m 
    1.13800     2.2853m  651.4728u  571.4987m 
    1.13900     2.2864m  653.7567u  571.4989m 
    1.14000     2.2874m  656.0417u  571.4990m 
    1.14100     2.2884m  658.3277u  571.4992m 
    1.14200     2.2895m  660.6148u  571.4993m 
    1.14300     2.2905m  662.9028u  571.4995m 
    1.14400     2.2915m  665.1919u  571.4997m 
    1.14500     2.2925m  667.4819u  571.4998m 
    1.14600     2.2935m  669.7730u  571.5000m 
    1.14700     2.2944m  672.0650u  571.5002m 
    1.14800     2.2954m  674.3580u  571.5003m 
    1.14900     2.2964m  676.6520u  571.5005m 
    1.15000     2.2974m  678.9470u  571.5006m 
    1.15100     2.2983m  681.2429u  571.5008m 
    1.15200     2.2993m  683.5397u  571.5010m 
    1.15300     2.3002m  685.8375u  571.5011m 
    1.15400     2.3011m  688.1363u  571.5013m 
    1.15500     2.3021m  690.4359u  571.5015m 
    1.15600     2.3030m  692.7365u  571.5016m 
    1.15700     2.3039m  695.0380u  571.5018m 
    1.15800     2.3048m  697.3404u  571.5019m 
    1.15900     2.3057m  699.6438u  571.5021m 
    1.16000     2.3066m  701.9480u  571.5023m 
    1.16100     2.3075m  704.2531u  571.5024m 
    1.16200     2.3084m  706.5591u  571.5026m 
    1.16300     2.3092m  708.8659u  571.5028m 
    1.16400     2.3101m  711.1736u  571.5029m 
    1.16500     2.3110m  713.4822u  571.5031m 
    1.16600     2.3118m  715.7917u  571.5033m 
    1.16700     2.3127m  718.1020u  571.5034m 
    1.16800     2.3135m  720.4132u  571.5036m 
    1.16900     2.3144m  722.7251u  571.5037m 
    1.17000     2.3152m  725.0380u  571.5039m 
    1.17100     2.3160m  727.3516u  571.5041m 
    1.17200     2.3168m  729.6661u  571.5042m 
    1.17300     2.3177m  731.9814u  571.5044m 
    1.17400     2.3185m  734.2975u  571.5046m 
    1.17500     2.3193m  736.6144u  571.5047m 
    1.17600     2.3201m  738.9321u  571.5049m 
    1.17700     2.3209m  741.2506u  571.5051m 
    1.17800     2.3216m  743.5698u  571.5052m 
    1.17900     2.3224m  745.8899u  571.5054m 
    1.18000     2.3232m  748.2107u  571.5056m 
    1.18100     2.3240m  750.5323u  571.5057m 
    1.18200     2.3247m  752.8547u  571.5059m 
    1.18300     2.3255m  755.1778u  571.5060m 
    1.18400     2.3262m  757.5016u  571.5062m 
    1.18500     2.3270m  759.8263u  571.5064m 
    1.18600     2.3277m  762.1516u  571.5065m 
    1.18700     2.3284m  764.4777u  571.5067m 
    1.18800     2.3292m  766.8045u  571.5069m 
    1.18900     2.3299m  769.1321u  571.5070m 
    1.19000     2.3306m  771.4603u  571.5072m 
    1.19100     2.3313m  773.7893u  571.5074m 
    1.19200     2.3320m  776.1190u  571.5075m 
    1.19300     2.3327m  778.4494u  571.5077m 
    1.19400     2.3334m  780.7805u  571.5079m 
    1.19500     2.3341m  783.1123u  571.5080m 
    1.19600     2.3348m  785.4448u  571.5082m 
    1.19700     2.3355m  787.7779u  571.5084m 
    1.19800     2.3362m  790.1117u  571.5085m 
    1.19900     2.3369m  792.4463u  571.5087m 
    1.20000     2.3375m  794.7814u  571.5088m 
    1.20100     2.3382m  797.1173u  571.5090m 
    1.20200     2.3388m  799.4538u  571.5092m 
    1.20300     2.3395m  801.7909u  571.5093m 
    1.20400     2.3401m  804.1287u  571.5095m 
    1.20500     2.3408m  806.4672u  571.5097m 
    1.20600     2.3414m  808.8063u  571.5098m 
    1.20700     2.3421m  811.1460u  571.5100m 
    1.20800     2.3427m  813.4863u  571.5102m 
    1.20900     2.3433m  815.8273u  571.5103m 
    1.21000     2.3439m  818.1689u  571.5105m 
    1.21100     2.3445m  820.5111u  571.5107m 
    1.21200     2.3452m  822.8539u  571.5108m 
    1.21300     2.3458m  825.1973u  571.5110m 
    1.21400     2.3464m  827.5414u  571.5112m 
    1.21500     2.3470m  829.8860u  571.5113m 
    1.21600     2.3475m  832.2312u  571.5115m 
    1.21700     2.3481m  834.5770u  571.5117m 
    1.21800     2.3487m  836.9234u  571.5118m 
    1.21900     2.3493m  839.2704u  571.5120m 
    1.22000     2.3499m  841.6179u  571.5122m 
    1.22100     2.3504m  843.9661u  571.5123m 
    1.22200     2.3510m  846.3147u  571.5125m 
    1.22300     2.3516m  848.6640u  571.5127m 
    1.22400     2.3521m  851.0138u  571.5128m 
    1.22500     2.3527m  853.3642u  571.5130m 
    1.22600     2.3532m  855.7151u  571.5132m 
    1.22700     2.3538m  858.0665u  571.5133m 
    1.22800     2.3543m  860.4185u  571.5135m 
    1.22900     2.3549m  862.7711u  571.5137m 
    1.23000     2.3554m  865.1241u  571.5138m 
    1.23100     2.3559m  867.4777u  571.5140m 
    1.23200     2.3564m  869.8319u  571.5142m 
    1.23300     2.3570m  872.1865u  571.5143m 
    1.23400     2.3575m  874.5417u  571.5145m 
    1.23500     2.3580m  876.8973u  571.5147m 
    1.23600     2.3585m  879.2535u  571.5148m 
    1.23700     2.3590m  881.6102u  571.5150m 
    1.23800     2.3595m  883.9674u  571.5152m 
    1.23900     2.3600m  886.3251u  571.5153m 
    1.24000     2.3605m  888.6833u  571.5155m 
    1.24100     2.3610m  891.0419u  571.5157m 
    1.24200     2.3615m  893.4011u  571.5158m 
    1.24300     2.3619m  895.7607u  571.5160m 
    1.24400     2.3624m  898.1208u  571.5162m 
    1.24500     2.3629m  900.4814u  571.5163m 
    1.24600     2.3634m  902.8425u  571.5165m 
    1.24700     2.3638m  905.2040u  571.5167m 
    1.24800     2.3643m  907.5660u  571.5168m 
    1.24900     2.3648m  909.9285u  571.5170m 
    1.25000     2.3652m  912.2914u  571.5172m 
    1.25100     2.3657m  914.6547u  571.5173m 
    1.25200     2.3661m  917.0185u  571.5175m 
    1.25300     2.3666m  919.3828u  571.5177m 
    1.25400     2.3670m  921.7475u  571.5178m 
    1.25500     2.3674m  924.1126u  571.5180m 
    1.25600     2.3679m  926.4782u  571.5182m 
    1.25700     2.3683m  928.8442u  571.5183m 
    1.25800     2.3687m  931.2106u  571.5185m 
    1.25900     2.3691m  933.5775u  571.5187m 
    1.26000     2.3696m  935.9447u  571.5188m 
    1.26100     2.3700m  938.3124u  571.5190m 
    1.26200     2.3704m  940.6805u  571.5192m 
    1.26300     2.3708m  943.0490u  571.5193m 
    1.26400     2.3712m  945.4180u  571.5195m 
    1.26500     2.3716m  947.7873u  571.5197m 
    1.26600     2.3720m  950.1570u  571.5198m 
    1.26700     2.3724m  952.5271u  571.5200m 
    1.26800     2.3728m  954.8976u  571.5202m 
    1.26900     2.3732m  957.2686u  571.5204m 
    1.27000     2.3736m  959.6398u  571.5205m 
    1.27100     2.3740m  962.0115u  571.5207m 
    1.27200     2.3743m  964.3836u  571.5209m 
    1.27300     2.3747m  966.7560u  571.5210m 
    1.27400     2.3751m  969.1288u  571.5212m 
    1.27500     2.3755m  971.5020u  571.5214m 
    1.27600     2.3758m  973.8756u  571.5215m 
    1.27700     2.3762m  976.2495u  571.5217m 
    1.27800     2.3766m  978.6238u  571.5219m 
    1.27900     2.3769m  980.9984u  571.5220m 
    1.28000     2.3773m  983.3734u  571.5222m 
    1.28100     2.3776m  985.7487u  571.5224m 
    1.28200     2.3780m  988.1244u  571.5225m 
    1.28300     2.3783m  990.5005u  571.5227m 
    1.28400     2.3787m  992.8768u  571.5229m 
    1.28500     2.3790m  995.2536u  571.5230m 
    1.28600     2.3793m  997.6306u  571.5232m 
    1.28700     2.3797m    1.0000m  571.5234m 
    1.28800     2.3800m    1.0024m  571.5235m 
    1.28900     2.3803m    1.0048m  571.5237m 
    1.29000     2.3807m    1.0071m  571.5239m 
    1.29100     2.3810m    1.0095m  571.5241m 
    1.29200     2.3813m    1.0119m  571.5242m 
    1.29300     2.3816m    1.0143m  571.5244m 
    1.29400     2.3819m    1.0167m  571.5246m 
    1.29500     2.3822m    1.0190m  571.5247m 
    1.29600     2.3825m    1.0214m  571.5249m 
    1.29700     2.3829m    1.0238m  571.5251m 
    1.29800     2.3832m    1.0262m  571.5252m 
    1.29900     2.3835m    1.0286m  571.5254m 
    1.30000     2.3838m    1.0309m  571.5256m 
    1.30100     2.3840m    1.0333m  571.5257m 
    1.30200     2.3843m    1.0357m  571.5259m 
    1.30300     2.3846m    1.0381m  571.5261m 
    1.30400     2.3849m    1.0405m  571.5262m 
    1.30500     2.3852m    1.0429m  571.5264m 
    1.30600     2.3855m    1.0452m  571.5266m 
    1.30700     2.3858m    1.0476m  571.5268m 
    1.30800     2.3860m    1.0500m  571.5269m 
    1.30900     2.3863m    1.0524m  571.5271m 
    1.31000     2.3866m    1.0548m  571.5273m 
    1.31100     2.3868m    1.0572m  571.5274m 
    1.31200     2.3871m    1.0595m  571.5276m 
    1.31300     2.3874m    1.0619m  571.5278m 
    1.31400     2.3876m    1.0643m  571.5279m 
    1.31500     2.3879m    1.0667m  571.5281m 
    1.31600     2.3881m    1.0691m  571.5283m 
    1.31700     2.3884m    1.0715m  571.5284m 
    1.31800     2.3886m    1.0739m  571.5286m 
    1.31900     2.3889m    1.0762m  571.5288m 
    1.32000     2.3891m    1.0786m  571.5289m 
    1.32100     2.3894m    1.0810m  571.5291m 
    1.32200     2.3896m    1.0834m  571.5293m 
    1.32300     2.3898m    1.0858m  571.5295m 
    1.32400     2.3901m    1.0882m  571.5296m 
    1.32500     2.3903m    1.0906m  571.5298m 
    1.32600     2.3905m    1.0930m  571.5300m 
    1.32700     2.3908m    1.0953m  571.5301m 
    1.32800     2.3910m    1.0977m  571.5303m 
    1.32900     2.3912m    1.1001m  571.5305m 
    1.33000     2.3914m    1.1025m  571.5306m 
    1.33100     2.3916m    1.1049m  571.5308m 
    1.33200     2.3919m    1.1073m  571.5310m 
    1.33300     2.3921m    1.1097m  571.5311m 
    1.33400     2.3923m    1.1121m  571.5313m 
    1.33500     2.3925m    1.1145m  571.5315m 
    1.33600     2.3927m    1.1169m  571.5317m 
    1.33700     2.3929m    1.1192m  571.5318m 
    1.33800     2.3931m    1.1216m  571.5320m 
    1.33900     2.3933m    1.1240m  571.5322m 
    1.34000     2.3935m    1.1264m  571.5323m 
    1.34100     2.3937m    1.1288m  571.5325m 
    1.34200     2.3939m    1.1312m  571.5327m 
    1.34300     2.3941m    1.1336m  571.5328m 
    1.34400     2.3943m    1.1360m  571.5330m 
    1.34500     2.3944m    1.1384m  571.5332m 
    1.34600     2.3946m    1.1408m  571.5333m 
    1.34700     2.3948m    1.1432m  571.5335m 
    1.34800     2.3950m    1.1456m  571.5337m 
    1.34900     2.3952m    1.1479m  571.5339m 
    1.35000     2.3953m    1.1503m  571.5340m 
    1.35100     2.3955m    1.1527m  571.5342m 
    1.35200     2.3957m    1.1551m  571.5344m 
    1.35300     2.3958m    1.1575m  571.5345m 
    1.35400     2.3960m    1.1599m  571.5347m 
    1.35500     2.3962m    1.1623m  571.5349m 
    1.35600     2.3963m    1.1647m  571.5350m 
    1.35700     2.3965m    1.1671m  571.5352m 
    1.35800     2.3967m    1.1695m  571.5354m 
    1.35900     2.3968m    1.1719m  571.5355m 
    1.36000     2.3970m    1.1743m  571.5357m 
    1.36100     2.3971m    1.1767m  571.5359m 
    1.36200     2.3973m    1.1791m  571.5361m 
    1.36300     2.3974m    1.1815m  571.5362m 
    1.36400     2.3976m    1.1839m  571.5364m 
    1.36500     2.3977m    1.1863m  571.5366m 
    1.36600     2.3978m    1.1887m  571.5367m 
    1.36700     2.3980m    1.1910m  571.5369m 
    1.36800     2.3981m    1.1934m  571.5371m 
    1.36900     2.3982m    1.1958m  571.5372m 
    1.37000     2.3984m    1.1982m  571.5374m 
    1.37100     2.3985m    1.2006m  571.5376m 
    1.37200     2.3986m    1.2030m  571.5378m 
    1.37300     2.3988m    1.2054m  571.5379m 
    1.37400     2.3989m    1.2078m  571.5381m 
    1.37500     2.3990m    1.2102m  571.5383m 
    1.37600     2.3991m    1.2126m  571.5384m 
    1.37700     2.3993m    1.2150m  571.5386m 
    1.37800     2.3994m    1.2174m  571.5388m 
    1.37900     2.3995m    1.2198m  571.5389m 
    1.38000     2.3996m    1.2222m  571.5391m 
    1.38100     2.3997m    1.2246m  571.5393m 
    1.38200     2.3998m    1.2270m  571.5395m 
    1.38300     2.3999m    1.2294m  571.5396m 
    1.38400     2.4000m    1.2318m  571.5398m 
    1.38500     2.4001m    1.2342m  571.5400m 
    1.38600     2.4002m    1.2366m  571.5401m 
    1.38700     2.4003m    1.2390m  571.5403m 
    1.38800     2.4004m    1.2414m  571.5405m 
    1.38900     2.4005m    1.2438m  571.5406m 
    1.39000     2.4006m    1.2462m  571.5408m 
    1.39100     2.4007m    1.2486m  571.5410m 
    1.39200     2.4008m    1.2510m  571.5411m 
    1.39300     2.4009m    1.2534m  571.5413m 
    1.39400     2.4010m    1.2558m  571.5415m 
    1.39500     2.4011m    1.2582m  571.5417m 
    1.39600     2.4012m    1.2606m  571.5418m 
    1.39700     2.4012m    1.2630m  571.5420m 
    1.39800     2.4013m    1.2654m  571.5422m 
    1.39900     2.4014m    1.2678m  571.5423m 
    1.40000     2.4015m    1.2702m  571.5425m 
    1.40100     2.4016m    1.2726m  571.5427m 
    1.40200     2.4016m    1.2750m  571.5428m 
    1.40300     2.4017m    1.2774m  571.5430m 
    1.40400     2.4018m    1.2798m  571.5432m 
    1.40500     2.4018m    1.2822m  571.5434m 
    1.40600     2.4019m    1.2846m  571.5435m 
    1.40700     2.4020m    1.2870m  571.5437m 
    1.40800     2.4020m    1.2894m  571.5439m 
    1.40900     2.4021m    1.2918m  571.5440m 
    1.41000     2.4022m    1.2942m  571.5442m 
    1.41100     2.4022m    1.2966m  571.5444m 
    1.41200     2.4023m    1.2990m  571.5445m 
    1.41300     2.4023m    1.3014m  571.5447m 
    1.41400     2.4024m    1.3038m  571.5449m 
    1.41500     2.4024m    1.3062m  571.5451m 
    1.41600     2.4025m    1.3086m  571.5452m 
    1.41700     2.4025m    1.3110m  571.5454m 
    1.41800     2.4026m    1.3134m  571.5456m 
    1.41900     2.4026m    1.3158m  571.5457m 
    1.42000     2.4027m    1.3182m  571.5459m 
    1.42100     2.4027m    1.3206m  571.5461m 
    1.42200     2.4027m    1.3230m  571.5462m 
    1.42300     2.4028m    1.3254m  571.5464m 
    1.42400     2.4028m    1.3278m  571.5466m 
    1.42500     2.4028m    1.3302m  571.5468m 
    1.42600     2.4029m    1.3326m  571.5469m 
    1.42700     2.4029m    1.3350m  571.5471m 
    1.42800     2.4029m    1.3374m  571.5473m 
    1.42900     2.4030m    1.3398m  571.5474m 
    1.43000     2.4030m    1.3422m  571.5476m 
    1.43100     2.4030m    1.3446m  571.5478m 
    1.43200     2.4031m    1.3470m  571.5479m 
    1.43300     2.4031m    1.3494m  571.5481m 
    1.43400     2.4031m    1.3518m  571.5483m 
    1.43500     2.4031m    1.3542m  571.5485m 
    1.43600     2.4031m    1.3566m  571.5486m 
    1.43700     2.4032m    1.3590m  571.5488m 
    1.43800     2.4032m    1.3614m  571.5490m 
    1.43900     2.4032m    1.3638m  571.5491m 
    1.44000     2.4032m    1.3662m  571.5493m 
    1.44100     2.4032m    1.3686m  571.5495m 
    1.44200     2.4032m    1.3710m  571.5496m 
    1.44300     2.4032m    1.3734m  571.5498m 
    1.44400     2.4032m    1.3758m  571.5500m 
    1.44500     2.4032m    1.3782m  571.5502m 
    1.44600     2.4032m    1.3806m  571.5503m 
    1.44700     2.4032m    1.3830m  571.5505m 
    1.44800     2.4032m    1.3854m  571.5507m 
    1.44900     2.4032m    1.3878m  571.5508m 
    1.45000     2.4032m    1.3902m  571.5510m 
    1.45100     2.4032m    1.3926m  571.5512m 
    1.45200     2.4032m    1.3950m  571.5513m 
    1.45300     2.4032m    1.3974m  571.5515m 
    1.45400     2.4032m    1.3998m  571.5517m 
    1.45500     2.4032m    1.4022m  571.5519m 
    1.45600     2.4032m    1.4046m  571.5520m 
    1.45700     2.4032m    1.4070m  571.5522m 
    1.45800     2.4032m    1.4094m  571.5524m 
    1.45900     2.4032m    1.4118m  571.5525m 
    1.46000     2.4031m    1.4142m  571.5527m 
    1.46100     2.4031m    1.4166m  571.5529m 
    1.46200     2.4031m    1.4190m  571.5530m 
    1.46300     2.4031m    1.4214m  571.5532m 
    1.46400     2.4031m    1.4238m  571.5534m 
    1.46500     2.4030m    1.4262m  571.5536m 
    1.46600     2.4030m    1.4286m  571.5537m 
    1.46700     2.4030m    1.4310m  571.5539m 
    1.46800     2.4030m    1.4334m  571.5541m 
    1.46900     2.4029m    1.4358m  571.5542m 
    1.47000     2.4029m    1.4382m  571.5544m 
    1.47100     2.4029m    1.4406m  571.5546m 
    1.47200     2.4028m    1.4430m  571.5547m 
    1.47300     2.4028m    1.4454m  571.5549m 
    1.47400     2.4028m    1.4478m  571.5551m 
    1.47500     2.4027m    1.4502m  571.5553m 
    1.47600     2.4027m    1.4526m  571.5554m 
    1.47700     2.4027m    1.4550m  571.5556m 
    1.47800     2.4026m    1.4574m  571.5558m 
    1.47900     2.4026m    1.4598m  571.5559m 
    1.48000     2.4025m    1.4622m  571.5561m 
    1.48100     2.4025m    1.4646m  571.5563m 
    1.48200     2.4024m    1.4670m  571.5564m 
    1.48300     2.4024m    1.4694m  571.5566m 
    1.48400     2.4023m    1.4718m  571.5568m 
    1.48500     2.4023m    1.4742m  571.5570m 
    1.48600     2.4022m    1.4766m  571.5571m 
    1.48700     2.4022m    1.4790m  571.5573m 
    1.48800     2.4021m    1.4814m  571.5575m 
    1.48900     2.4021m    1.4838m  571.5576m 
    1.49000     2.4020m    1.4862m  571.5578m 
    1.49100     2.4020m    1.4886m  571.5580m 
    1.49200     2.4019m    1.4910m  571.5581m 
    1.49300     2.4019m    1.4934m  571.5583m 
    1.49400     2.4018m    1.4958m  571.5585m 
    1.49500     2.4017m    1.4982m  571.5587m 
    1.49600     2.4017m    1.5006m  571.5588m 
    1.49700     2.4016m    1.5030m  571.5590m 
    1.49800     2.4015m    1.5054m  571.5592m 
    1.49900     2.4015m    1.5078m  571.5593m 
    1.50000     2.4014m    1.5102m  571.5595m 
    1.50100     2.4013m    1.5126m  571.5597m 
    1.50200     2.4013m    1.5150m  571.5598m 
    1.50300     2.4012m    1.5174m  571.5600m 
    1.50400     2.4011m    1.5198m  571.5602m 
    1.50500     2.4010m    1.5222m  571.5604m 
    1.50600     2.4010m    1.5246m  571.5605m 
    1.50700     2.4009m    1.5270m  571.5607m 
    1.50800     2.4008m    1.5294m  571.5609m 
    1.50900     2.4007m    1.5318m  571.5610m 
    1.51000     2.4007m    1.5342m  571.5612m 
    1.51100     2.4006m    1.5366m  571.5614m 
    1.51200     2.4005m    1.5390m  571.5615m 
    1.51300     2.4004m    1.5414m  571.5617m 
    1.51400     2.4003m    1.5438m  571.5619m 
    1.51500     2.4002m    1.5462m  571.5621m 
    1.51600     2.4002m    1.5486m  571.5622m 
    1.51700     2.4001m    1.5510m  571.5624m 
    1.51800     2.4000m    1.5534m  571.5626m 
    1.51900     2.3999m    1.5558m  571.5627m 
    1.52000     2.3998m    1.5582m  571.5629m 
    1.52100     2.3997m    1.5606m  571.5631m 
    1.52200     2.3996m    1.5630m  571.5632m 
    1.52300     2.3995m    1.5654m  571.5634m 
    1.52400     2.3994m    1.5678m  571.5636m 
    1.52500     2.3993m    1.5702m  571.5637m 
    1.52600     2.3992m    1.5726m  571.5639m 
    1.52700     2.3991m    1.5750m  571.5641m 
    1.52800     2.3990m    1.5774m  571.5643m 
    1.52900     2.3989m    1.5798m  571.5644m 
    1.53000     2.3988m    1.5822m  571.5646m 
    1.53100     2.3987m    1.5845m  571.5648m 
    1.53200     2.3986m    1.5869m  571.5649m 
    1.53300     2.3985m    1.5893m  571.5651m 
    1.53400     2.3984m    1.5917m  571.5653m 
    1.53500     2.3983m    1.5941m  571.5654m 
    1.53600     2.3982m    1.5965m  571.5656m 
    1.53700     2.3981m    1.5989m  571.5658m 
    1.53800     2.3980m    1.6013m  571.5660m 
    1.53900     2.3979m    1.6037m  571.5661m 
    1.54000     2.3978m    1.6061m  571.5663m 
    1.54100     2.3976m    1.6085m  571.5665m 
    1.54200     2.3975m    1.6109m  571.5666m 
    1.54300     2.3974m    1.6133m  571.5668m 
    1.54400     2.3973m    1.6157m  571.5670m 
    1.54500     2.3972m    1.6181m  571.5671m 
    1.54600     2.3971m    1.6205m  571.5673m 
    1.54700     2.3969m    1.6229m  571.5675m 
    1.54800     2.3968m    1.6253m  571.5676m 
    1.54900     2.3967m    1.6277m  571.5678m 
    1.55000     2.3966m    1.6301m  571.5680m 
    1.55100     2.3964m    1.6325m  571.5682m 
    1.55200     2.3963m    1.6349m  571.5683m 
    1.55300     2.3962m    1.6372m  571.5685m 
    1.55400     2.3961m    1.6396m  571.5687m 
    1.55500     2.3959m    1.6420m  571.5688m 
    1.55600     2.3958m    1.6444m  571.5690m 
    1.55700     2.3957m    1.6468m  571.5692m 
    1.55800     2.3955m    1.6492m  571.5693m 
    1.55900     2.3954m    1.6516m  571.5695m 
    1.56000     2.3953m    1.6540m  571.5697m 
    1.56100     2.3951m    1.6564m  571.5699m 
    1.56200     2.3950m    1.6588m  571.5700m 
    1.56300     2.3949m    1.6612m  571.5702m 
    1.56400     2.3947m    1.6636m  571.5704m 
    1.56500     2.3946m    1.6660m  571.5705m 
    1.56600     2.3945m    1.6684m  571.5707m 
    1.56700     2.3943m    1.6707m  571.5709m 
    1.56800     2.3942m    1.6731m  571.5710m 
    1.56900     2.3940m    1.6755m  571.5712m 
    1.57000     2.3939m    1.6779m  571.5714m 
    1.57100     2.3937m    1.6803m  571.5715m 
    1.57200     2.3936m    1.6827m  571.5717m 
    1.57300     2.3935m    1.6851m  571.5719m 
    1.57400     2.3933m    1.6875m  571.5721m 
    1.57500     2.3932m    1.6899m  571.5722m 
    1.57600     2.3930m    1.6923m  571.5724m 
    1.57700     2.3929m    1.6947m  571.5726m 
    1.57800     2.3927m    1.6971m  571.5727m 
    1.57900     2.3926m    1.6994m  571.5729m 
    1.58000     2.3924m    1.7018m  571.5731m 
    1.58100     2.3922m    1.7042m  571.5732m 
    1.58200     2.3921m    1.7066m  571.5734m 
    1.58300     2.3919m    1.7090m  571.5736m 
    1.58400     2.3918m    1.7114m  571.5737m 
    1.58500     2.3916m    1.7138m  571.5739m 
    1.58600     2.3915m    1.7162m  571.5741m 
    1.58700     2.3913m    1.7186m  571.5743m 
    1.58800     2.3911m    1.7209m  571.5744m 
    1.58900     2.3910m    1.7233m  571.5746m 
    1.59000     2.3908m    1.7257m  571.5748m 
    1.59100     2.3907m    1.7281m  571.5749m 
    1.59200     2.3905m    1.7305m  571.5751m 
    1.59300     2.3903m    1.7329m  571.5753m 
    1.59400     2.3902m    1.7353m  571.5754m 
    1.59500     2.3900m    1.7377m  571.5756m 
    1.59600     2.3898m    1.7401m  571.5758m 
    1.59700     2.3897m    1.7424m  571.5759m 
    1.59800     2.3895m    1.7448m  571.5761m 
    1.59900     2.3893m    1.7472m  571.5763m 
    1.60000     2.3891m    1.7496m  571.5765m 
    1.60100     2.3890m    1.7520m  571.5766m 
    1.60200     2.3888m    1.7544m  571.5768m 
    1.60300     2.3886m    1.7568m  571.5770m 
    1.60400     2.3885m    1.7591m  571.5771m 
    1.60500     2.3883m    1.7615m  571.5773m 
    1.60600     2.3881m    1.7639m  571.5775m 
    1.60700     2.3879m    1.7663m  571.5776m 
    1.60800     2.3877m    1.7687m  571.5778m 
    1.60900     2.3876m    1.7711m  571.5780m 
    1.61000     2.3874m    1.7735m  571.5781m 
    1.61100     2.3872m    1.7758m  571.5783m 
    1.61200     2.3870m    1.7782m  571.5785m 
    1.61300     2.3868m    1.7806m  571.5786m 
    1.61400     2.3867m    1.7830m  571.5788m 
    1.61500     2.3865m    1.7854m  571.5790m 
    1.61600     2.3863m    1.7878m  571.5792m 
    1.61700     2.3861m    1.7902m  571.5793m 
    1.61800     2.3859m    1.7925m  571.5795m 
    1.61900     2.3857m    1.7949m  571.5797m 
    1.62000     2.3855m    1.7973m  571.5798m 
    1.62100     2.3853m    1.7997m  571.5800m 
    1.62200     2.3852m    1.8021m  571.5802m 
    1.62300     2.3850m    1.8045m  571.5803m 
    1.62400     2.3848m    1.8068m  571.5805m 
    1.62500     2.3846m    1.8092m  571.5807m 
    1.62600     2.3844m    1.8116m  571.5808m 
    1.62700     2.3842m    1.8140m  571.5810m 
    1.62800     2.3840m    1.8164m  571.5812m 
    1.62900     2.3838m    1.8187m  571.5813m 
    1.63000     2.3836m    1.8211m  571.5815m 
    1.63100     2.3834m    1.8235m  571.5817m 
    1.63200     2.3832m    1.8259m  571.5819m 
    1.63300     2.3830m    1.8283m  571.5820m 
    1.63400     2.3828m    1.8307m  571.5822m 
    1.63500     2.3826m    1.8330m  571.5824m 
    1.63600     2.3824m    1.8354m  571.5825m 
    1.63700     2.3822m    1.8378m  571.5827m 
    1.63800     2.3820m    1.8402m  571.5829m 
    1.63900     2.3818m    1.8426m  571.5830m 
    1.64000     2.3816m    1.8449m  571.5832m 
    1.64100     2.3814m    1.8473m  571.5834m 
    1.64200     2.3812m    1.8497m  571.5835m 
    1.64300     2.3810m    1.8521m  571.5837m 
    1.64400     2.3807m    1.8544m  571.5839m 
    1.64500     2.3805m    1.8568m  571.5840m 
    1.64600     2.3803m    1.8592m  571.5842m 
    1.64700     2.3801m    1.8616m  571.5844m 
    1.64800     2.3799m    1.8640m  571.5845m 
    1.64900     2.3797m    1.8663m  571.5847m 
    1.65000     2.3795m    1.8687m  571.5849m 
    1.65100     2.3793m    1.8711m  571.5851m 
    1.65200     2.3790m    1.8735m  571.5852m 
    1.65300     2.3788m    1.8758m  571.5854m 
    1.65400     2.3786m    1.8782m  571.5856m 
    1.65500     2.3784m    1.8806m  571.5857m 
    1.65600     2.3782m    1.8830m  571.5859m 
    1.65700     2.3780m    1.8854m  571.5861m 
    1.65800     2.3777m    1.8877m  571.5862m 
    1.65900     2.3775m    1.8901m  571.5864m 
    1.66000     2.3773m    1.8925m  571.5866m 
    1.66100     2.3771m    1.8949m  571.5867m 
    1.66200     2.3768m    1.8972m  571.5869m 
    1.66300     2.3766m    1.8996m  571.5871m 
    1.66400     2.3764m    1.9020m  571.5872m 
    1.66500     2.3762m    1.9043m  571.5874m 
    1.66600     2.3759m    1.9067m  571.5876m 
    1.66700     2.3757m    1.9091m  571.5877m 
    1.66800     2.3755m    1.9115m  571.5879m 
    1.66900     2.3753m    1.9138m  571.5881m 
    1.67000     2.3750m    1.9162m  571.5882m 
    1.67100     2.3748m    1.9186m  571.5884m 
    1.67200     2.3746m    1.9210m  571.5886m 
    1.67300     2.3743m    1.9233m  571.5888m 
    1.67400     2.3741m    1.9257m  571.5889m 
    1.67500     2.3739m    1.9281m  571.5891m 
    1.67600     2.3736m    1.9304m  571.5893m 
    1.67700     2.3734m    1.9328m  571.5894m 
    1.67800     2.3732m    1.9352m  571.5896m 
    1.67900     2.3729m    1.9376m  571.5898m 
    1.68000     2.3727m    1.9399m  571.5899m 
    1.68100     2.3725m    1.9423m  571.5901m 
    1.68200     2.3722m    1.9447m  571.5903m 
    1.68300     2.3720m    1.9470m  571.5904m 
    1.68400     2.3717m    1.9494m  571.5906m 
    1.68500     2.3715m    1.9518m  571.5908m 
    1.68600     2.3712m    1.9542m  571.5909m 
    1.68700     2.3710m    1.9565m  571.5911m 
    1.68800     2.3708m    1.9589m  571.5913m 
    1.68900     2.3705m    1.9613m  571.5914m 
    1.69000     2.3703m    1.9636m  571.5916m 
    1.69100     2.3700m    1.9660m  571.5918m 
    1.69200     2.3698m    1.9684m  571.5919m 
    1.69300     2.3695m    1.9707m  571.5921m 
    1.69400     2.3693m    1.9731m  571.5923m 
    1.69500     2.3690m    1.9755m  571.5924m 
    1.69600     2.3688m    1.9778m  571.5926m 
    1.69700     2.3685m    1.9802m  571.5928m 
    1.69800     2.3683m    1.9826m  571.5929m 
    1.69900     2.3680m    1.9849m  571.5931m 
    1.70000     2.3678m    1.9873m  571.5933m 
    1.70100     2.3675m    1.9897m  571.5934m 
    1.70200     2.3673m    1.9920m  571.5936m 
    1.70300     2.3670m    1.9944m  571.5938m 
    1.70400     2.3668m    1.9968m  571.5939m 
    1.70500     2.3665m    1.9991m  571.5941m 
    1.70600     2.3663m    2.0015m  571.5943m 
    1.70700     2.3660m    2.0038m  571.5945m 
    1.70800     2.3657m    2.0062m  571.5946m 
    1.70900     2.3655m    2.0086m  571.5948m 
    1.71000     2.3652m    2.0109m  571.5950m 
    1.71100     2.3650m    2.0133m  571.5951m 
    1.71200     2.3647m    2.0157m  571.5953m 
    1.71300     2.3644m    2.0180m  571.5955m 
    1.71400     2.3642m    2.0204m  571.5956m 
    1.71500     2.3639m    2.0227m  571.5958m 
    1.71600     2.3636m    2.0251m  571.5960m 
    1.71700     2.3634m    2.0275m  571.5961m 
    1.71800     2.3631m    2.0298m  571.5963m 
    1.71900     2.3628m    2.0322m  571.5965m 
    1.72000     2.3626m    2.0346m  571.5966m 
    1.72100     2.3623m    2.0369m  571.5968m 
    1.72200     2.3620m    2.0393m  571.5970m 
    1.72300     2.3618m    2.0416m  571.5971m 
    1.72400     2.3615m    2.0440m  571.5973m 
    1.72500     2.3612m    2.0463m  571.5975m 
    1.72600     2.3610m    2.0487m  571.5976m 
    1.72700     2.3607m    2.0511m  571.5978m 
    1.72800     2.3604m    2.0534m  571.5980m 
    1.72900     2.3601m    2.0558m  571.5981m 
    1.73000     2.3599m    2.0581m  571.5983m 
    1.73100     2.3596m    2.0605m  571.5985m 
    1.73200     2.3593m    2.0629m  571.5986m 
    1.73300     2.3590m    2.0652m  571.5988m 
    1.73400     2.3588m    2.0676m  571.5990m 
    1.73500     2.3585m    2.0699m  571.5991m 
    1.73600     2.3582m    2.0723m  571.5993m 
    1.73700     2.3579m    2.0746m  571.5995m 
    1.73800     2.3576m    2.0770m  571.5996m 
    1.73900     2.3574m    2.0793m  571.5998m 
    1.74000     2.3571m    2.0817m  571.6000m 
    1.74100     2.3568m    2.0841m  571.6001m 
    1.74200     2.3565m    2.0864m  571.6003m 
    1.74300     2.3562m    2.0888m  571.6005m 
    1.74400     2.3560m    2.0911m  571.6006m 
    1.74500     2.3557m    2.0935m  571.6008m 
    1.74600     2.3554m    2.0958m  571.6010m 
    1.74700     2.3551m    2.0982m  571.6011m 
    1.74800     2.3548m    2.1005m  571.6013m 
    1.74900     2.3545m    2.1029m  571.6015m 
    1.75000     2.3542m    2.1052m  571.6016m 
    1.75100     2.3539m    2.1076m  571.6018m 
    1.75200     2.3537m    2.1099m  571.6020m 
    1.75300     2.3534m    2.1123m  571.6021m 
    1.75400     2.3531m    2.1146m  571.6023m 
    1.75500     2.3528m    2.1170m  571.6025m 
    1.75600     2.3525m    2.1193m  571.6026m 
    1.75700     2.3522m    2.1217m  571.6028m 
    1.75800     2.3519m    2.1240m  571.6030m 
    1.75900     2.3516m    2.1264m  571.6031m 
    1.76000     2.3513m    2.1287m  571.6033m 
    1.76100     2.3510m    2.1311m  571.6035m 
    1.76200     2.3507m    2.1334m  571.6036m 
    1.76300     2.3504m    2.1358m  571.6038m 
    1.76400     2.3501m    2.1381m  571.6040m 
    1.76500     2.3498m    2.1405m  571.6041m 
    1.76600     2.3495m    2.1428m  571.6043m 
    1.76700     2.3492m    2.1452m  571.6045m 
    1.76800     2.3489m    2.1475m  571.6046m 
    1.76900     2.3486m    2.1499m  571.6048m 
    1.77000     2.3483m    2.1522m  571.6050m 
    1.77100     2.3480m    2.1546m  571.6051m 
    1.77200     2.3477m    2.1569m  571.6053m 
    1.77300     2.3474m    2.1593m  571.6055m 
    1.77400     2.3471m    2.1616m  571.6056m 
    1.77500     2.3468m    2.1639m  571.6058m 
    1.77600     2.3465m    2.1663m  571.6060m 
    1.77700     2.3462m    2.1686m  571.6061m 
    1.77800     2.3459m    2.1710m  571.6063m 
    1.77900     2.3456m    2.1733m  571.6064m 
    1.78000     2.3453m    2.1757m  571.6066m 
    1.78100     2.3450m    2.1780m  571.6068m 
    1.78200     2.3447m    2.1803m  571.6069m 
    1.78300     2.3443m    2.1827m  571.6071m 
    1.78400     2.3440m    2.1850m  571.6073m 
    1.78500     2.3437m    2.1874m  571.6074m 
    1.78600     2.3434m    2.1897m  571.6076m 
    1.78700     2.3431m    2.1921m  571.6078m 
    1.78800     2.3428m    2.1944m  571.6079m 
    1.78900     2.3425m    2.1967m  571.6081m 
    1.79000     2.3421m    2.1991m  571.6083m 
    1.79100     2.3418m    2.2014m  571.6084m 
    1.79200     2.3415m    2.2038m  571.6086m 
    1.79300     2.3412m    2.2061m  571.6088m 
    1.79400     2.3409m    2.2084m  571.6089m 
    1.79500     2.3406m    2.2108m  571.6091m 
    1.79600     2.3402m    2.2131m  571.6093m 
    1.79700     2.3399m    2.2154m  571.6094m 
    1.79800     2.3396m    2.2178m  571.6096m 
    1.79900     2.3393m    2.2201m  571.6098m 
    1.80000     2.3390m    2.2225m  571.6099m 
y

          ***** job concluded
1****** HSPICE -- O-2018.09-SP2 win64 (Feb 25 2019) ******                      
 ******  
 

 ****** job statistics summary tnom=  25.000 temp=  25.000 ******

  ******  HSPICE Threads Information  ******

  Command Line Threads Count :     1
  Available CPU Count        :     8
  Actual Threads Count       :     1


  ******  Circuit Statistics  ******
  # nodes       =       6 # elements   =       4
  # resistors   =       0 # capacitors =       0 # inductors   =       0
  # mutual_inds =       0 # vccs       =       0 # vcvs        =       0
  # cccs        =       0 # ccvs       =       0 # volt_srcs   =       3
  # curr_srcs   =       0 # diodes     =       0 # bjts        =       0
  # jfets       =       0 # mosfets    =       1 # U elements  =       0
  # T elements  =       0 # W elements =       0 # B elements  =       0
  # S elements  =       0 # P elements =       0 # va device   =       0
  # vector_srcs =       0 # N elements =       0


  ******  Runtime Statistics (seconds)  ******

  analysis           time    # points   tot. iter  conv.iter
  op point           0.00           1           0
  dc sweep           0.12        1801        3604
  readin             0.05
  errchk             0.01
  setup              0.00
  output             0.00


           peak memory used         64.27 megabytes
           total cpu time            0.20 seconds
           total elapsed time        0.23 seconds
           job started at     20:38:35 12/05/2021
           job ended   at     20:38:35 12/05/2021


  lic: Release hspice token(s) 
 lic: total license checkout elapse time:        0.03(s)
