 ****** HSPICE -- O-2018.09-SP2 win64 (Feb 25 2019) ******                      
  Copyright (c) 1986 - 2021 by Synopsys, Inc. All Rights Reserved.              
  This software and the associated documentation are proprietary
  to Synopsys, Inc. This software may only be used in accordance
  with the terms and conditions of a written license agreement with
  Synopsys, Inc. All other use, reproduction, or distribution of
  this software is strictly prohibited.
  Input File: mirror.sp                                                         
  Command line options: C:\synopsys\Hspice_O-2018.09-SP2\WIN64\hspice.com -i mirror.sp -o C:\mdsy\proj2\mirror.lis
  Start time: Sun Dec  5 23:05:57 2021
  lic:  
  lic: FLEXlm: SDK_11.7.3 
  lic: USER:   admin                HOSTNAME: DESKTOP-3KO7170 
  lic: HOSTID: "d83bbfb49802"       PID:      2264 
  lic: Using FLEXlm license file: 
  lic: 27000@DESKTOP-3KO7170 
  lic: Checkout 1 hspice 
  lic: License/Maintenance for hspice will expire on 30-dec-2029/2019.2019 
  lic: 1(in_use)/99(total) FLOATING license(s) on SERVER 27000@DESKTOP-3KO7170 
  lic:   
 

  
      

Element variations(Local):   element              parameter
 **info** set option symb=1 internally to help for convergence.
 *****************************************************************
 ******  option summary
 ******
 runlvl  = 3         bypass  = 2.0000    
 ******
 

 ****** dc transfer curves tnom=  25.000 temp=  25.000 ******
x

 volt         param      param      param       param     
             idsn       vthn       idsp        vthp       
    0.          0.       483.4310m  393.8083u   458.3929m 
    1.00000m  533.3205f  483.4308m  393.3389u   458.3931m 
    2.00000m    1.0877p  483.4306m  392.8695u   458.3933m 
    3.00000m    1.6636p  483.4303m  392.4004u   458.3935m 
    4.00000m    2.2615p  483.4301m  391.9313u   458.3937m 
    5.00000m    2.8819p  483.4299m  391.4624u   458.3939m 
    6.00000m    3.5252p  483.4297m  390.9937u   458.3941m 
    7.00000m    4.1919p  483.4294m  390.5250u   458.3943m 
    8.00000m    4.8826p  483.4292m  390.0566u   458.3945m 
    9.00000m    5.5976p  483.4290m  389.5882u   458.3948m 
   10.00000m    6.3376p  483.4287m  389.1200u   458.3950m 
   11.00000m    7.1030p  483.4285m  388.6520u   458.3952m 
   12.00000m    7.8943p  483.4283m  388.1841u   458.3954m 
   13.00000m    8.7120p  483.4280m  387.7163u   458.3956m 
   14.00000m    9.5567p  483.4278m  387.2487u   458.3958m 
   15.00000m   10.4288p  483.4276m  386.7812u   458.3960m 
   16.00000m   11.3290p  483.4274m  386.3138u   458.3962m 
   17.00000m   12.2578p  483.4271m  385.8466u   458.3964m 
   18.00000m   13.2158p  483.4269m  385.3795u   458.3966m 
   19.00000m   14.2034p  483.4267m  384.9126u   458.3968m 
   20.00000m   15.2214p  483.4264m  384.4459u   458.3970m 
   21.00000m   16.2703p  483.4262m  383.9792u   458.3973m 
   22.00000m   17.3508p  483.4260m  383.5127u   458.3975m 
   23.00000m   18.4635p  483.4257m  383.0464u   458.3977m 
   24.00000m   19.6091p  483.4255m  382.5802u   458.3979m 
   25.00000m   20.7883p  483.4253m  382.1141u   458.3981m 
   26.00000m   22.0018p  483.4250m  381.6482u   458.3983m 
   27.00000m   23.2503p  483.4248m  381.1824u   458.3985m 
   28.00000m   24.5347p  483.4246m  380.7168u   458.3987m 
   29.00000m   25.8557p  483.4244m  380.2513u   458.3989m 
   30.00000m   27.2143p  483.4241m  379.7860u   458.3991m 
   31.00000m   28.6112p  483.4239m  379.3208u   458.3993m 
   32.00000m   30.0475p  483.4237m  378.8558u   458.3996m 
   33.00000m   31.5241p  483.4234m  378.3909u   458.3998m 
   34.00000m   33.0420p  483.4232m  377.9261u   458.4000m 
   35.00000m   34.6024p  483.4230m  377.4615u   458.4002m 
   36.00000m   36.2062p  483.4227m  376.9970u   458.4004m 
   37.00000m   37.8547p  483.4225m  376.5327u   458.4006m 
   38.00000m   39.5492p  483.4223m  376.0686u   458.4008m 
   39.00000m   41.2909p  483.4220m  375.6045u   458.4010m 
   40.00000m   43.0812p  483.4218m  375.1407u   458.4012m 
   41.00000m   44.9214p  483.4216m  374.6769u   458.4014m 
   42.00000m   46.8131p  483.4214m  374.2134u   458.4016m 
   43.00000m   48.7578p  483.4211m  373.7499u   458.4018m 
   44.00000m   50.7570p  483.4209m  373.2866u   458.4021m 
   45.00000m   52.8126p  483.4207m  372.8235u   458.4023m 
   46.00000m   54.9263p  483.4204m  372.3605u   458.4025m 
   47.00000m   57.0997p  483.4202m  371.8977u   458.4027m 
   48.00000m   59.3350p  483.4200m  371.4350u   458.4029m 
   49.00000m   61.6340p  483.4197m  370.9725u   458.4031m 
   50.00000m   63.9988p  483.4195m  370.5101u   458.4033m 
   51.00000m   66.4316p  483.4193m  370.0478u   458.4035m 
   52.00000m   68.9345p  483.4191m  369.5858u   458.4037m 
   53.00000m   71.5098p  483.4188m  369.1238u   458.4039m 
   54.00000m   74.1600p  483.4186m  368.6620u   458.4041m 
   55.00000m   76.8874p  483.4184m  368.2004u   458.4044m 
   56.00000m   79.6947p  483.4181m  367.7389u   458.4046m 
   57.00000m   82.5845p  483.4179m  367.2776u   458.4048m 
   58.00000m   85.5595p  483.4177m  366.8164u   458.4050m 
   59.00000m   88.6225p  483.4174m  366.3554u   458.4052m 
   60.00000m   91.7764p  483.4172m  365.8945u   458.4054m 
   61.00000m   95.0244p  483.4170m  365.4338u   458.4056m 
   62.00000m   98.3694p  483.4167m  364.9732u   458.4058m 
   63.00000m  101.8146p  483.4165m  364.5128u   458.4060m 
   64.00000m  105.3635p  483.4163m  364.0525u   458.4062m 
   65.00000m  109.0194p  483.4161m  363.5924u   458.4064m 
   66.00000m  112.7858p  483.4158m  363.1324u   458.4067m 
   67.00000m  116.6663p  483.4156m  362.6726u   458.4069m 
   68.00000m  120.6648p  483.4154m  362.2129u   458.4071m 
   69.00000m  124.7850p  483.4151m  361.7534u   458.4073m 
   70.00000m  129.0310p  483.4149m  361.2941u   458.4075m 
   71.00000m  133.4069p  483.4147m  360.8349u   458.4077m 
   72.00000m  137.9169p  483.4144m  360.3758u   458.4079m 
   73.00000m  142.5653p  483.4142m  359.9170u   458.4081m 
   74.00000m  147.3566p  483.4140m  359.4582u   458.4083m 
   75.00000m  152.2956p  483.4137m  358.9997u   458.4085m 
   76.00000m  157.3868p  483.4135m  358.5412u   458.4087m 
   77.00000m  162.6354p  483.4133m  358.0830u   458.4090m 
   78.00000m  168.0463p  483.4131m  357.6249u   458.4092m 
   79.00000m  173.6248p  483.4128m  357.1669u   458.4094m 
   80.00000m  179.3762p  483.4126m  356.7091u   458.4096m 
   81.00000m  185.3061p  483.4124m  356.2515u   458.4098m 
   82.00000m  191.4203p  483.4121m  355.7940u   458.4100m 
   83.00000m  197.7245p  483.4119m  355.3367u   458.4102m 
   84.00000m  204.2249p  483.4117m  354.8795u   458.4104m 
   85.00000m  210.9278p  483.4114m  354.4225u   458.4106m 
   86.00000m  217.8395p  483.4112m  353.9656u   458.4108m 
   87.00000m  224.9667p  483.4110m  353.5089u   458.4110m 
   88.00000m  232.3163p  483.4108m  353.0524u   458.4113m 
   89.00000m  239.8954p  483.4105m  352.5960u   458.4115m 
   90.00000m  247.7111p  483.4103m  352.1398u   458.4117m 
   91.00000m  255.7710p  483.4101m  351.6837u   458.4119m 
   92.00000m  264.0828p  483.4098m  351.2278u   458.4121m 
   93.00000m  272.6545p  483.4096m  350.7721u   458.4123m 
   94.00000m  281.4942p  483.4094m  350.3165u   458.4125m 
   95.00000m  290.6105p  483.4091m  349.8611u   458.4127m 
   96.00000m  300.0119p  483.4089m  349.4058u   458.4129m 
   97.00000m  309.7076p  483.4087m  348.9507u   458.4131m 
   98.00000m  319.7067p  483.4084m  348.4957u   458.4133m 
   99.00000m  330.0188p  483.4082m  348.0409u   458.4136m 
  100.00000m  340.6537p  483.4080m  347.5863u   458.4138m 
  101.00000m  351.6216p  483.4078m  347.1319u   458.4140m 
  102.00000m  362.9328p  483.4075m  346.6776u   458.4142m 
  103.00000m  374.5981p  483.4073m  346.2234u   458.4144m 
  104.00000m  386.6286p  483.4071m  345.7694u   458.4146m 
  105.00000m  399.0357p  483.4068m  345.3156u   458.4148m 
  106.00000m  411.8311p  483.4066m  344.8620u   458.4150m 
  107.00000m  425.0271p  483.4064m  344.4085u   458.4152m 
  108.00000m  438.6361p  483.4061m  343.9551u   458.4154m 
  109.00000m  452.6710p  483.4059m  343.5020u   458.4156m 
  110.00000m  467.1450p  483.4057m  343.0490u   458.4159m 
  111.00000m  482.0718p  483.4054m  342.5961u   458.4161m 
  112.00000m  497.4655p  483.4052m  342.1435u   458.4163m 
  113.00000m  513.3407p  483.4050m  341.6909u   458.4165m 
  114.00000m  529.7122p  483.4048m  341.2386u   458.4167m 
  115.00000m  546.5955p  483.4045m  340.7864u   458.4169m 
  116.00000m  564.0065p  483.4043m  340.3344u   458.4171m 
  117.00000m  581.9616p  483.4041m  339.8825u   458.4173m 
  118.00000m  600.4775p  483.4038m  339.4308u   458.4175m 
  119.00000m  619.5717p  483.4036m  338.9793u   458.4177m 
  120.00000m  639.2622p  483.4034m  338.5280u   458.4179m 
  121.00000m  659.5672p  483.4031m  338.0768u   458.4182m 
  122.00000m  680.5059p  483.4029m  337.6257u   458.4184m 
  123.00000m  702.0977p  483.4027m  337.1749u   458.4186m 
  124.00000m  724.3629p  483.4025m  336.7242u   458.4188m 
  125.00000m  747.3223p  483.4022m  336.2737u   458.4190m 
  126.00000m  770.9972p  483.4020m  335.8233u   458.4192m 
  127.00000m  795.4097p  483.4018m  335.3731u   458.4194m 
  128.00000m  820.5825p  483.4015m  334.9231u   458.4196m 
  129.00000m  846.5391p  483.4013m  334.4732u   458.4198m 
  130.00000m  873.3034p  483.4011m  334.0235u   458.4200m 
  131.00000m  900.9004p  483.4008m  333.5740u   458.4203m 
  132.00000m  929.3555p  483.4006m  333.1246u   458.4205m 
  133.00000m  958.6953p  483.4004m  332.6755u   458.4207m 
  134.00000m  988.9467p  483.4001m  332.2264u   458.4209m 
  135.00000m    1.0201n  483.3999m  331.7776u   458.4211m 
  136.00000m    1.0523n  483.3997m  331.3289u   458.4213m 
  137.00000m    1.0855n  483.3995m  330.8804u   458.4215m 
  138.00000m    1.1196n  483.3992m  330.4321u   458.4217m 
  139.00000m    1.1549n  483.3990m  329.9839u   458.4219m 
  140.00000m    1.1912n  483.3988m  329.5359u   458.4221m 
  141.00000m    1.2287n  483.3985m  329.0881u   458.4223m 
  142.00000m    1.2673n  483.3983m  328.6404u   458.4226m 
  143.00000m    1.3071n  483.3981m  328.1929u   458.4228m 
  144.00000m    1.3482n  483.3978m  327.7456u   458.4230m 
  145.00000m    1.3905n  483.3976m  327.2985u   458.4232m 
  146.00000m    1.4341n  483.3974m  326.8515u   458.4234m 
  147.00000m    1.4791n  483.3972m  326.4047u   458.4236m 
  148.00000m    1.5255n  483.3969m  325.9581u   458.4238m 
  149.00000m    1.5733n  483.3967m  325.5116u   458.4240m 
  150.00000m    1.6225n  483.3965m  325.0653u   458.4242m 
  151.00000m    1.6733n  483.3962m  324.6192u   458.4244m 
  152.00000m    1.7257n  483.3960m  324.1733u   458.4247m 
  153.00000m    1.7796n  483.3958m  323.7275u   458.4249m 
  154.00000m    1.8353n  483.3955m  323.2819u   458.4251m 
  155.00000m    1.8926n  483.3953m  322.8365u   458.4253m 
  156.00000m    1.9517n  483.3951m  322.3912u   458.4255m 
  157.00000m    2.0126n  483.3948m  321.9462u   458.4257m 
  158.00000m    2.0754n  483.3946m  321.5013u   458.4259m 
  159.00000m    2.1401n  483.3944m  321.0566u   458.4261m 
  160.00000m    2.2068n  483.3942m  320.6120u   458.4263m 
  161.00000m    2.2755n  483.3939m  320.1676u   458.4265m 
  162.00000m    2.3464n  483.3937m  319.7234u   458.4267m 
  163.00000m    2.4194n  483.3935m  319.2794u   458.4270m 
  164.00000m    2.4946n  483.3932m  318.8356u   458.4272m 
  165.00000m    2.5722n  483.3930m  318.3919u   458.4274m 
  166.00000m    2.6521n  483.3928m  317.9484u   458.4276m 
  167.00000m    2.7344n  483.3925m  317.5051u   458.4278m 
  168.00000m    2.8193n  483.3923m  317.0620u   458.4280m 
  169.00000m    2.9068n  483.3921m  316.6190u   458.4282m 
  170.00000m    2.9969n  483.3918m  316.1762u   458.4284m 
  171.00000m    3.0897n  483.3916m  315.7336u   458.4286m 
  172.00000m    3.1854n  483.3914m  315.2912u   458.4288m 
  173.00000m    3.2840n  483.3912m  314.8489u   458.4291m 
  174.00000m    3.3856n  483.3909m  314.4069u   458.4293m 
  175.00000m    3.4902n  483.3907m  313.9650u   458.4295m 
  176.00000m    3.5981n  483.3905m  313.5233u   458.4297m 
  177.00000m    3.7092n  483.3902m  313.0817u   458.4299m 
  178.00000m    3.8237n  483.3900m  312.6404u   458.4301m 
  179.00000m    3.9416n  483.3898m  312.1992u   458.4303m 
  180.00000m    4.0631n  483.3895m  311.7582u   458.4305m 
  181.00000m    4.1883n  483.3893m  311.3174u   458.4307m 
  182.00000m    4.3172n  483.3891m  310.8768u   458.4309m 
  183.00000m    4.4500n  483.3889m  310.4363u   458.4312m 
  184.00000m    4.5869n  483.3886m  309.9960u   458.4314m 
  185.00000m    4.7278n  483.3884m  309.5559u   458.4316m 
  186.00000m    4.8730n  483.3882m  309.1160u   458.4318m 
  187.00000m    5.0226n  483.3879m  308.6763u   458.4320m 
  188.00000m    5.1766n  483.3877m  308.2368u   458.4322m 
  189.00000m    5.3353n  483.3875m  307.7974u   458.4324m 
  190.00000m    5.4987n  483.3872m  307.3582u   458.4326m 
  191.00000m    5.6670n  483.3870m  306.9192u   458.4328m 
  192.00000m    5.8404n  483.3868m  306.4804u   458.4330m 
  193.00000m    6.0189n  483.3865m  306.0418u   458.4333m 
  194.00000m    6.2028n  483.3863m  305.6033u   458.4335m 
  195.00000m    6.3921n  483.3861m  305.1650u   458.4337m 
  196.00000m    6.5871n  483.3859m  304.7270u   458.4339m 
  197.00000m    6.7879n  483.3856m  304.2891u   458.4341m 
  198.00000m    6.9946n  483.3854m  303.8513u   458.4343m 
  199.00000m    7.2075n  483.3852m  303.4138u   458.4345m 
  200.00000m    7.4268n  483.3849m  302.9765u   458.4347m 
  201.00000m    7.6525n  483.3847m  302.5393u   458.4349m 
  202.00000m    7.8849n  483.3845m  302.1023u   458.4351m 
  203.00000m    8.1242n  483.3842m  301.6655u   458.4354m 
  204.00000m    8.3705n  483.3840m  301.2289u   458.4356m 
  205.00000m    8.6241n  483.3838m  300.7925u   458.4358m 
  206.00000m    8.8852n  483.3836m  300.3563u   458.4360m 
  207.00000m    9.1540n  483.3833m  299.9202u   458.4362m 
  208.00000m    9.4307n  483.3831m  299.4844u   458.4364m 
  209.00000m    9.7155n  483.3829m  299.0487u   458.4366m 
  210.00000m   10.0087n  483.3826m  298.6132u   458.4368m 
  211.00000m   10.3105n  483.3824m  298.1779u   458.4370m 
  212.00000m   10.6211n  483.3822m  297.7428u   458.4372m 
  213.00000m   10.9408n  483.3819m  297.3079u   458.4375m 
  214.00000m   11.2699n  483.3817m  296.8732u   458.4377m 
  215.00000m   11.6085n  483.3815m  296.4386u   458.4379m 
  216.00000m   11.9570n  483.3812m  296.0043u   458.4381m 
  217.00000m   12.3156n  483.3810m  295.5701u   458.4383m 
  218.00000m   12.6847n  483.3808m  295.1361u   458.4385m 
  219.00000m   13.0645n  483.3806m  294.7023u   458.4387m 
  220.00000m   13.4553n  483.3803m  294.2687u   458.4389m 
  221.00000m   13.8574n  483.3801m  293.8353u   458.4391m 
  222.00000m   14.2711n  483.3799m  293.4021u   458.4393m 
  223.00000m   14.6967n  483.3796m  292.9691u   458.4396m 
  224.00000m   15.1347n  483.3794m  292.5362u   458.4398m 
  225.00000m   15.5852n  483.3792m  292.1036u   458.4400m 
  226.00000m   16.0487n  483.3789m  291.6712u   458.4402m 
  227.00000m   16.5255n  483.3787m  291.2389u   458.4404m 
  228.00000m   17.0160n  483.3785m  290.8068u   458.4406m 
  229.00000m   17.5205n  483.3782m  290.3749u   458.4408m 
  230.00000m   18.0394n  483.3780m  289.9433u   458.4410m 
  231.00000m   18.5732n  483.3778m  289.5118u   458.4412m 
  232.00000m   19.1221n  483.3776m  289.0805u   458.4414m 
  233.00000m   19.6867n  483.3773m  288.6494u   458.4417m 
  234.00000m   20.2674n  483.3771m  288.2184u   458.4419m 
  235.00000m   20.8645n  483.3769m  287.7877u   458.4421m 
  236.00000m   21.4785n  483.3766m  287.3572u   458.4423m 
  237.00000m   22.1099n  483.3764m  286.9269u   458.4425m 
  238.00000m   22.7591n  483.3762m  286.4967u   458.4427m 
  239.00000m   23.4266n  483.3759m  286.0668u   458.4429m 
  240.00000m   24.1129n  483.3757m  285.6370u   458.4431m 
  241.00000m   24.8185n  483.3755m  285.2075u   458.4433m 
  242.00000m   25.5439n  483.3753m  284.7781u   458.4436m 
  243.00000m   26.2896n  483.3750m  284.3490u   458.4438m 
  244.00000m   27.0561n  483.3748m  283.9200u   458.4440m 
  245.00000m   27.8441n  483.3746m  283.4912u   458.4442m 
  246.00000m   28.6540n  483.3743m  283.0627u   458.4444m 
  247.00000m   29.4865n  483.3741m  282.6343u   458.4446m 
  248.00000m   30.3420n  483.3739m  282.2061u   458.4448m 
  249.00000m   31.2213n  483.3736m  281.7781u   458.4450m 
  250.00000m   32.1249n  483.3734m  281.3503u   458.4452m 
  251.00000m   33.0535n  483.3732m  280.9228u   458.4454m 
  252.00000m   34.0077n  483.3729m  280.4954u   458.4457m 
  253.00000m   34.9882n  483.3727m  280.0682u   458.4459m 
  254.00000m   35.9956n  483.3725m  279.6412u   458.4461m 
  255.00000m   37.0306n  483.3723m  279.2144u   458.4463m 
  256.00000m   38.0940n  483.3720m  278.7878u   458.4465m 
  257.00000m   39.1864n  483.3718m  278.3614u   458.4467m 
  258.00000m   40.3086n  483.3716m  277.9352u   458.4469m 
  259.00000m   41.4614n  483.3713m  277.5092u   458.4471m 
  260.00000m   42.6454n  483.3711m  277.0834u   458.4473m 
  261.00000m   43.8616n  483.3709m  276.6578u   458.4476m 
  262.00000m   45.1107n  483.3706m  276.2324u   458.4478m 
  263.00000m   46.3935n  483.3704m  275.8072u   458.4480m 
  264.00000m   47.7110n  483.3702m  275.3823u   458.4482m 
  265.00000m   49.0638n  483.3700m  274.9575u   458.4484m 
  266.00000m   50.4530n  483.3697m  274.5329u   458.4486m 
  267.00000m   51.8794n  483.3695m  274.1085u   458.4488m 
  268.00000m   53.3439n  483.3693m  273.6843u   458.4490m 
  269.00000m   54.8476n  483.3690m  273.2603u   458.4492m 
  270.00000m   56.3912n  483.3688m  272.8365u   458.4494m 
  271.00000m   57.9759n  483.3686m  272.4130u   458.4497m 
  272.00000m   59.6027n  483.3683m  271.9896u   458.4499m 
  273.00000m   61.2724n  483.3681m  271.5664u   458.4501m 
  274.00000m   62.9863n  483.3679m  271.1435u   458.4503m 
  275.00000m   64.7454n  483.3676m  270.7207u   458.4505m 
  276.00000m   66.5507n  483.3674m  270.2981u   458.4507m 
  277.00000m   68.4033n  483.3672m  269.8758u   458.4509m 
  278.00000m   70.3045n  483.3670m  269.4536u   458.4511m 
  279.00000m   72.2554n  483.3667m  269.0317u   458.4513m 
  280.00000m   74.2571n  483.3665m  268.6100u   458.4516m 
  281.00000m   76.3109n  483.3663m  268.1884u   458.4518m 
  282.00000m   78.4180n  483.3660m  267.7671u   458.4520m 
  283.00000m   80.5796n  483.3658m  267.3460u   458.4522m 
  284.00000m   82.7972n  483.3656m  266.9251u   458.4524m 
  285.00000m   85.0719n  483.3653m  266.5044u   458.4526m 
  286.00000m   87.4051n  483.3651m  266.0839u   458.4528m 
  287.00000m   89.7982n  483.3649m  265.6636u   458.4530m 
  288.00000m   92.2526n  483.3647m  265.2435u   458.4532m 
  289.00000m   94.7698n  483.3644m  264.8236u   458.4535m 
  290.00000m   97.3510n  483.3642m  264.4039u   458.4537m 
  291.00000m   99.9980n  483.3640m  263.9845u   458.4539m 
  292.00000m  102.7121n  483.3637m  263.5652u   458.4541m 
  293.00000m  105.4949n  483.3635m  263.1462u   458.4543m 
  294.00000m  108.3481n  483.3633m  262.7273u   458.4545m 
  295.00000m  111.2731n  483.3630m  262.3087u   458.4547m 
  296.00000m  114.2717n  483.3628m  261.8903u   458.4549m 
  297.00000m  117.3455n  483.3626m  261.4721u   458.4551m 
  298.00000m  120.4962n  483.3623m  261.0541u   458.4554m 
  299.00000m  123.7256n  483.3621m  260.6363u   458.4556m 
  300.00000m  127.0355n  483.3619m  260.2187u   458.4558m 
  301.00000m  130.4276n  483.3617m  259.8014u   458.4560m 
  302.00000m  133.9038n  483.3614m  259.3842u   458.4562m 
  303.00000m  137.4659n  483.3612m  258.9673u   458.4564m 
  304.00000m  141.1160n  483.3610m  258.5505u   458.4566m 
  305.00000m  144.8559n  483.3607m  258.1340u   458.4568m 
  306.00000m  148.6877n  483.3605m  257.7177u   458.4570m 
  307.00000m  152.6134n  483.3603m  257.3016u   458.4572m 
  308.00000m  156.6350n  483.3600m  256.8857u   458.4575m 
  309.00000m  160.7547n  483.3598m  256.4701u   458.4577m 
  310.00000m  164.9746n  483.3596m  256.0546u   458.4579m 
  311.00000m  169.2969n  483.3594m  255.6394u   458.4581m 
  312.00000m  173.7239n  483.3591m  255.2244u   458.4583m 
  313.00000m  178.2578n  483.3589m  254.8095u   458.4585m 
  314.00000m  182.9010n  483.3587m  254.3949u   458.4587m 
  315.00000m  187.6558n  483.3584m  253.9806u   458.4589m 
  316.00000m  192.5246n  483.3582m  253.5664u   458.4591m 
  317.00000m  197.5099n  483.3580m  253.1524u   458.4594m 
  318.00000m  202.6142n  483.3577m  252.7387u   458.4596m 
  319.00000m  207.8401n  483.3575m  252.3252u   458.4598m 
  320.00000m  213.1901n  483.3573m  251.9119u   458.4600m 
  321.00000m  218.6669n  483.3570m  251.4988u   458.4602m 
  322.00000m  224.2733n  483.3568m  251.0859u   458.4604m 
  323.00000m  230.0119n  483.3566m  250.6733u   458.4606m 
  324.00000m  235.8855n  483.3564m  250.2608u   458.4608m 
  325.00000m  241.8971n  483.3561m  249.8486u   458.4611m 
  326.00000m  248.0495n  483.3559m  249.4366u   458.4613m 
  327.00000m  254.3457n  483.3557m  249.0248u   458.4615m 
  328.00000m  260.7887n  483.3554m  248.6132u   458.4617m 
  329.00000m  267.3815n  483.3552m  248.2019u   458.4619m 
  330.00000m  274.1274n  483.3550m  247.7908u   458.4621m 
  331.00000m  281.0295n  483.3547m  247.3799u   458.4623m 
  332.00000m  288.0911n  483.3545m  246.9692u   458.4625m 
  333.00000m  295.3154n  483.3543m  246.5587u   458.4627m 
  334.00000m  302.7058n  483.3541m  246.1484u   458.4630m 
  335.00000m  310.2659n  483.3538m  245.7384u   458.4632m 
  336.00000m  317.9990n  483.3536m  245.3286u   458.4634m 
  337.00000m  325.9088n  483.3534m  244.9190u   458.4636m 
  338.00000m  333.9988n  483.3531m  244.5096u   458.4638m 
  339.00000m  342.2728n  483.3529m  244.1005u   458.4640m 
  340.00000m  350.7346n  483.3527m  243.6916u   458.4642m 
  341.00000m  359.3879n  483.3524m  243.2829u   458.4644m 
  342.00000m  368.2367n  483.3522m  242.8744u   458.4646m 
  343.00000m  377.2849n  483.3520m  242.4661u   458.4649m 
  344.00000m  386.5367n  483.3518m  242.0581u   458.4651m 
  345.00000m  395.9961n  483.3515m  241.6503u   458.4653m 
  346.00000m  405.6673n  483.3513m  241.2427u   458.4655m 
  347.00000m  415.5547n  483.3511m  240.8353u   458.4657m 
  348.00000m  425.6625n  483.3508m  240.4282u   458.4659m 
  349.00000m  435.9953n  483.3506m  240.0212u   458.4661m 
  350.00000m  446.5574n  483.3504m  239.6145u   458.4663m 
  351.00000m  457.3536n  483.3501m  239.2081u   458.4665m 
  352.00000m  468.3886n  483.3499m  238.8018u   458.4668m 
  353.00000m  479.6670n  483.3497m  238.3958u   458.4670m 
  354.00000m  491.1937n  483.3495m  237.9900u   458.4672m 
  355.00000m  502.9738n  483.3492m  237.5844u   458.4674m 
  356.00000m  515.0122n  483.3490m  237.1791u   458.4676m 
  357.00000m  527.3140n  483.3488m  236.7740u   458.4678m 
  358.00000m  539.8846n  483.3485m  236.3691u   458.4680m 
  359.00000m  552.7291n  483.3483m  235.9644u   458.4682m 
  360.00000m  565.8531n  483.3481m  235.5600u   458.4684m 
  361.00000m  579.2620n  483.3478m  235.1558u   458.4687m 
  362.00000m  592.9614n  483.3476m  234.7518u   458.4689m 
  363.00000m  606.9571n  483.3474m  234.3480u   458.4691m 
  364.00000m  621.2548n  483.3472m  233.9445u   458.4693m 
  365.00000m  635.8605n  483.3469m  233.5412u   458.4695m 
  366.00000m  650.7802n  483.3467m  233.1381u   458.4697m 
  367.00000m  666.0201n  483.3465m  232.7353u   458.4699m 
  368.00000m  681.5864n  483.3462m  232.3327u   458.4701m 
  369.00000m  697.4854n  483.3460m  231.9303u   458.4704m 
  370.00000m  713.7236n  483.3458m  231.5282u   458.4706m 
  371.00000m  730.3076n  483.3455m  231.1262u   458.4708m 
  372.00000m  747.2441n  483.3453m  230.7246u   458.4710m 
  373.00000m  764.5399n  483.3451m  230.3231u   458.4712m 
  374.00000m  782.2019n  483.3449m  229.9219u   458.4714m 
  375.00000m  800.2373n  483.3446m  229.5209u   458.4716m 
  376.00000m  818.6531n  483.3444m  229.1201u   458.4718m 
  377.00000m  837.4568n  483.3442m  228.7196u   458.4720m 
  378.00000m  856.6557n  483.3439m  228.3193u   458.4723m 
  379.00000m  876.2574n  483.3437m  227.9192u   458.4725m 
  380.00000m  896.2696n  483.3435m  227.5194u   458.4727m 
  381.00000m  916.7001n  483.3432m  227.1198u   458.4729m 
  382.00000m  937.5570n  483.3430m  226.7204u   458.4731m 
  383.00000m  958.8483n  483.3428m  226.3213u   458.4733m 
  384.00000m  980.5822n  483.3426m  225.9224u   458.4735m 
  385.00000m    1.0028u  483.3423m  225.5237u   458.4737m 
  386.00000m    1.0254u  483.3421m  225.1253u   458.4740m 
  387.00000m    1.0485u  483.3419m  224.7271u   458.4742m 
  388.00000m    1.0721u  483.3416m  224.3291u   458.4744m 
  389.00000m    1.0962u  483.3414m  223.9314u   458.4746m 
  390.00000m    1.1208u  483.3412m  223.5339u   458.4748m 
  391.00000m    1.1458u  483.3409m  223.1366u   458.4750m 
  392.00000m    1.1714u  483.3407m  222.7396u   458.4752m 
  393.00000m    1.1975u  483.3405m  222.3428u   458.4754m 
  394.00000m    1.2242u  483.3403m  221.9463u   458.4756m 
  395.00000m    1.2514u  483.3400m  221.5500u   458.4759m 
  396.00000m    1.2791u  483.3398m  221.1539u   458.4761m 
  397.00000m    1.3074u  483.3396m  220.7581u   458.4763m 
  398.00000m    1.3363u  483.3393m  220.3625u   458.4765m 
  399.00000m    1.3658u  483.3391m  219.9671u   458.4767m 
  400.00000m    1.3958u  483.3389m  219.5720u   458.4769m 
  401.00000m    1.4265u  483.3387m  219.1771u   458.4771m 
  402.00000m    1.4578u  483.3384m  218.7824u   458.4773m 
  403.00000m    1.4897u  483.3382m  218.3880u   458.4776m 
  404.00000m    1.5222u  483.3380m  217.9939u   458.4778m 
  405.00000m    1.5554u  483.3377m  217.6000u   458.4780m 
  406.00000m    1.5893u  483.3375m  217.2063u   458.4782m 
  407.00000m    1.6238u  483.3373m  216.8128u   458.4784m 
  408.00000m    1.6590u  483.3370m  216.4196u   458.4786m 
  409.00000m    1.6950u  483.3368m  216.0267u   458.4788m 
  410.00000m    1.7316u  483.3366m  215.6339u   458.4790m 
  411.00000m    1.7690u  483.3364m  215.2415u   458.4793m 
  412.00000m    1.8070u  483.3361m  214.8492u   458.4795m 
  413.00000m    1.8459u  483.3359m  214.4572u   458.4797m 
  414.00000m    1.8855u  483.3357m  214.0655u   458.4799m 
  415.00000m    1.9259u  483.3354m  213.6740u   458.4801m 
  416.00000m    1.9671u  483.3352m  213.2827u   458.4803m 
  417.00000m    2.0090u  483.3350m  212.8917u   458.4805m 
  418.00000m    2.0518u  483.3348m  212.5009u   458.4807m 
  419.00000m    2.0955u  483.3345m  212.1104u   458.4810m 
  420.00000m    2.1399u  483.3343m  211.7201u   458.4812m 
  421.00000m    2.1853u  483.3341m  211.3300u   458.4814m 
  422.00000m    2.2315u  483.3338m  210.9402u   458.4816m 
  423.00000m    2.2786u  483.3336m  210.5507u   458.4818m 
  424.00000m    2.3266u  483.3334m  210.1614u   458.4820m 
  425.00000m    2.3755u  483.3332m  209.7723u   458.4822m 
  426.00000m    2.4254u  483.3329m  209.3835u   458.4824m 
  427.00000m    2.4762u  483.3327m  208.9949u   458.4826m 
  428.00000m    2.5280u  483.3325m  208.6066u   458.4829m 
  429.00000m    2.5808u  483.3322m  208.2185u   458.4831m 
  430.00000m    2.6345u  483.3320m  207.8307u   458.4833m 
  431.00000m    2.6893u  483.3318m  207.4431u   458.4835m 
  432.00000m    2.7451u  483.3316m  207.0558u   458.4837m 
  433.00000m    2.8020u  483.3313m  206.6687u   458.4839m 
  434.00000m    2.8599u  483.3311m  206.2818u   458.4841m 
  435.00000m    2.9189u  483.3309m  205.8952u   458.4843m 
  436.00000m    2.9791u  483.3306m  205.5089u   458.4846m 
  437.00000m    3.0403u  483.3304m  205.1228u   458.4848m 
  438.00000m    3.1027u  483.3302m  204.7370u   458.4850m 
  439.00000m    3.1662u  483.3300m  204.3514u   458.4852m 
  440.00000m    3.2309u  483.3297m  203.9660u   458.4854m 
  441.00000m    3.2968u  483.3295m  203.5809u   458.4856m 
  442.00000m    3.3639u  483.3293m  203.1961u   458.4858m 
  443.00000m    3.4323u  483.3290m  202.8115u   458.4860m 
  444.00000m    3.5018u  483.3288m  202.4272u   458.4863m 
  445.00000m    3.5727u  483.3286m  202.0431u   458.4865m 
  446.00000m    3.6448u  483.3284m  201.6592u   458.4867m 
  447.00000m    3.7183u  483.3281m  201.2756u   458.4869m 
  448.00000m    3.7930u  483.3279m  200.8923u   458.4871m 
  449.00000m    3.8691u  483.3277m  200.5092u   458.4873m 
  450.00000m    3.9466u  483.3275m  200.1264u   458.4875m 
  451.00000m    4.0254u  483.3272m  199.7438u   458.4877m 
  452.00000m    4.1057u  483.3270m  199.3615u   458.4880m 
  453.00000m    4.1874u  483.3268m  198.9795u   458.4882m 
  454.00000m    4.2705u  483.3265m  198.5976u   458.4884m 
  455.00000m    4.3551u  483.3263m  198.2161u   458.4886m 
  456.00000m    4.4412u  483.3261m  197.8348u   458.4888m 
  457.00000m    4.5288u  483.3259m  197.4537u   458.4890m 
  458.00000m    4.6179u  483.3256m  197.0730u   458.4892m 
  459.00000m    4.7085u  483.3254m  196.6924u   458.4894m 
  460.00000m    4.8008u  483.3252m  196.3121u   458.4897m 
  461.00000m    4.8946u  483.3250m  195.9321u   458.4899m 
  462.00000m    4.9900u  483.3247m  195.5524u   458.4901m 
  463.00000m    5.0871u  483.3245m  195.1728u   458.4903m 
  464.00000m    5.1858u  483.3243m  194.7936u   458.4905m 
  465.00000m    5.2862u  483.3240m  194.4146u   458.4907m 
  466.00000m    5.3884u  483.3238m  194.0359u   458.4909m 
  467.00000m    5.4922u  483.3236m  193.6574u   458.4912m 
  468.00000m    5.5978u  483.3234m  193.2792u   458.4914m 
  469.00000m    5.7051u  483.3231m  192.9012u   458.4916m 
  470.00000m    5.8142u  483.3229m  192.5235u   458.4918m 
  471.00000m    5.9252u  483.3227m  192.1461u   458.4920m 
  472.00000m    6.0380u  483.3225m  191.7689u   458.4922m 
  473.00000m    6.1526u  483.3222m  191.3920u   458.4924m 
  474.00000m    6.2691u  483.3220m  191.0153u   458.4926m 
  475.00000m    6.3876u  483.3218m  190.6389u   458.4929m 
  476.00000m    6.5079u  483.3216m  190.2628u   458.4931m 
  477.00000m    6.6302u  483.3213m  189.8869u   458.4933m 
  478.00000m    6.7545u  483.3211m  189.5113u   458.4935m 
  479.00000m    6.8807u  483.3209m  189.1359u   458.4937m 
  480.00000m    7.0090u  483.3207m  188.7608u   458.4939m 
  481.00000m    7.1393u  483.3204m  188.3860u   458.4941m 
  482.00000m    7.2717u  483.3202m  188.0114u   458.4943m 
  483.00000m    7.4062u  483.3200m  187.6371u   458.4946m 
  484.00000m    7.5428u  483.3198m  187.2631u   458.4948m 
  485.00000m    7.6815u  483.3195m  186.8893u   458.4950m 
  486.00000m    7.8224u  483.3193m  186.5158u   458.4952m 
  487.00000m    7.9654u  483.3191m  186.1425u   458.4954m 
  488.00000m    8.1107u  483.3189m  185.7695u   458.4956m 
  489.00000m    8.2581u  483.3186m  185.3968u   458.4958m 
  490.00000m    8.4078u  483.3184m  185.0244u   458.4960m 
  491.00000m    8.5598u  483.3182m  184.6522u   458.4963m 
  492.00000m    8.7141u  483.3180m  184.2803u   458.4965m 
  493.00000m    8.8707u  483.3177m  183.9086u   458.4967m 
  494.00000m    9.0297u  483.3175m  183.5372u   458.4969m 
  495.00000m    9.1910u  483.3173m  183.1661u   458.4971m 
  496.00000m    9.3546u  483.3171m  182.7952u   458.4973m 
  497.00000m    9.5207u  483.3168m  182.4246u   458.4975m 
  498.00000m    9.6893u  483.3166m  182.0543u   458.4978m 
  499.00000m    9.8602u  483.3164m  181.6843u   458.4980m 
  500.00000m   10.0337u  483.3162m  181.3145u   458.4982m 
  501.00000m   10.2096u  483.3159m  180.9450u   458.4984m 
  502.00000m   10.3881u  483.3157m  180.5757u   458.4986m 
  503.00000m   10.5691u  483.3155m  180.2067u   458.4988m 
  504.00000m   10.7526u  483.3153m  179.8380u   458.4990m 
  505.00000m   10.9388u  483.3150m  179.4696u   458.4992m 
  506.00000m   11.1276u  483.3148m  179.1014u   458.4995m 
  507.00000m   11.3189u  483.3146m  178.7335u   458.4997m 
  508.00000m   11.5130u  483.3144m  178.3659u   458.4999m 
  509.00000m   11.7097u  483.3142m  177.9985u   458.5001m 
  510.00000m   11.9091u  483.3139m  177.6314u   458.5003m 
  511.00000m   12.1112u  483.3137m  177.2646u   458.5005m 
  512.00000m   12.3160u  483.3135m  176.8981u   458.5007m 
  513.00000m   12.5236u  483.3133m  176.5318u   458.5010m 
  514.00000m   12.7340u  483.3130m  176.1658u   458.5012m 
  515.00000m   12.9472u  483.3128m  175.8001u   458.5014m 
  516.00000m   13.1632u  483.3126m  175.4346u   458.5016m 
  517.00000m   13.3820u  483.3124m  175.0695u   458.5018m 
  518.00000m   13.6037u  483.3122m  174.7046u   458.5020m 
  519.00000m   13.8283u  483.3119m  174.3399u   458.5022m 
  520.00000m   14.0557u  483.3117m  173.9756u   458.5024m 
  521.00000m   14.2861u  483.3115m  173.6115u   458.5027m 
  522.00000m   14.5194u  483.3113m  173.2477u   458.5029m 
  523.00000m   14.7556u  483.3110m  172.8842u   458.5031m 
  524.00000m   14.9948u  483.3108m  172.5209u   458.5033m 
  525.00000m   15.2371u  483.3106m  172.1579u   458.5035m 
  526.00000m   15.4823u  483.3104m  171.7952u   458.5037m 
  527.00000m   15.7305u  483.3102m  171.4328u   458.5039m 
  528.00000m   15.9818u  483.3099m  171.0706u   458.5042m 
  529.00000m   16.2362u  483.3097m  170.7088u   458.5044m 
  530.00000m   16.4936u  483.3095m  170.3472u   458.5046m 
  531.00000m   16.7541u  483.3093m  169.9859u   458.5048m 
  532.00000m   17.0178u  483.3091m  169.6248u   458.5050m 
  533.00000m   17.2845u  483.3088m  169.2641u   458.5052m 
  534.00000m   17.5544u  483.3086m  168.9036u   458.5054m 
  535.00000m   17.8275u  483.3084m  168.5434u   458.5056m 
  536.00000m   18.1038u  483.3082m  168.1835u   458.5059m 
  537.00000m   18.3832u  483.3080m  167.8238u   458.5061m 
  538.00000m   18.6659u  483.3077m  167.4644u   458.5063m 
  539.00000m   18.9517u  483.3075m  167.1054u   458.5065m 
  540.00000m   19.2409u  483.3073m  166.7466u   458.5067m 
  541.00000m   19.5332u  483.3071m  166.3880u   458.5069m 
  542.00000m   19.8289u  483.3069m  166.0298u   458.5071m 
  543.00000m   20.1278u  483.3066m  165.6718u   458.5074m 
  544.00000m   20.4300u  483.3064m  165.3142u   458.5076m 
  545.00000m   20.7355u  483.3062m  164.9568u   458.5078m 
  546.00000m   21.0444u  483.3060m  164.5997u   458.5080m 
  547.00000m   21.3565u  483.3058m  164.2428u   458.5082m 
  548.00000m   21.6721u  483.3056m  163.8863u   458.5084m 
  549.00000m   21.9909u  483.3053m  163.5300u   458.5086m 
  550.00000m   22.3132u  483.3051m  163.1741u   458.5089m 
  551.00000m   22.6388u  483.3049m  162.8184u   458.5091m 
  552.00000m   22.9679u  483.3047m  162.4630u   458.5093m 
  553.00000m   23.3003u  483.3045m  162.1078u   458.5095m 
  554.00000m   23.6362u  483.3042m  161.7530u   458.5097m 
  555.00000m   23.9755u  483.3040m  161.3985u   458.5099m 
  556.00000m   24.3182u  483.3038m  161.0442u   458.5101m 
  557.00000m   24.6644u  483.3036m  160.6902u   458.5104m 
  558.00000m   25.0140u  483.3034m  160.3365u   458.5106m 
  559.00000m   25.3671u  483.3032m  159.9831u   458.5108m 
  560.00000m   25.7237u  483.3029m  159.6300u   458.5110m 
  561.00000m   26.0838u  483.3027m  159.2772u   458.5112m 
  562.00000m   26.4473u  483.3025m  158.9246u   458.5114m 
  563.00000m   26.8144u  483.3023m  158.5723u   458.5116m 
  564.00000m   27.1850u  483.3021m  158.2204u   458.5119m 
  565.00000m   27.5591u  483.3019m  157.8687u   458.5121m 
  566.00000m   27.9367u  483.3016m  157.5173u   458.5123m 
  567.00000m   28.3179u  483.3014m  157.1662u   458.5125m 
  568.00000m   28.7026u  483.3012m  156.8154u   458.5127m 
  569.00000m   29.0909u  483.3010m  156.4649u   458.5129m 
  570.00000m   29.4827u  483.3008m  156.1146u   458.5131m 
  571.00000m   29.8781u  483.3006m  155.7647u   458.5133m 
  572.00000m   30.2771u  483.3004m  155.4151u   458.5136m 
  573.00000m   30.6796u  483.3001m  155.0657u   458.5138m 
  574.00000m   31.0858u  483.2999m  154.7166u   458.5140m 
  575.00000m   31.4955u  483.2997m  154.3679u   458.5142m 
  576.00000m   31.9088u  483.2995m  154.0194u   458.5144m 
  577.00000m   32.3257u  483.2993m  153.6712u   458.5146m 
  578.00000m   32.7462u  483.2991m  153.3233u   458.5148m 
  579.00000m   33.1703u  483.2989m  152.9757u   458.5151m 
  580.00000m   33.5980u  483.2986m  152.6284u   458.5153m 
  581.00000m   34.0294u  483.2984m  152.2813u   458.5155m 
  582.00000m   34.4643u  483.2982m  151.9346u   458.5157m 
  583.00000m   34.9029u  483.2980m  151.5882u   458.5159m 
  584.00000m   35.3451u  483.2978m  151.2421u   458.5161m 
  585.00000m   35.7910u  483.2976m  150.8962u   458.5163m 
  586.00000m   36.2405u  483.2974m  150.5507u   458.5166m 
  587.00000m   36.6936u  483.2971m  150.2054u   458.5168m 
  588.00000m   37.1503u  483.2969m  149.8605u   458.5170m 
  589.00000m   37.6107u  483.2967m  149.5158u   458.5172m 
  590.00000m   38.0747u  483.2965m  149.1715u   458.5174m 
  591.00000m   38.5424u  483.2963m  148.8274u   458.5176m 
  592.00000m   39.0137u  483.2961m  148.4836u   458.5178m 
  593.00000m   39.4887u  483.2959m  148.1402u   458.5181m 
  594.00000m   39.9673u  483.2957m  147.7970u   458.5183m 
  595.00000m   40.4495u  483.2954m  147.4541u   458.5185m 
  596.00000m   40.9354u  483.2952m  147.1116u   458.5187m 
  597.00000m   41.4250u  483.2950m  146.7693u   458.5189m 
  598.00000m   41.9182u  483.2948m  146.4273u   458.5191m 
  599.00000m   42.4151u  483.2946m  146.0857u   458.5193m 
  600.00000m   42.9156u  483.2944m  145.7443u   458.5196m 
  601.00000m   43.4197u  483.2942m  145.4032u   458.5198m 
  602.00000m   43.9275u  483.2940m  145.0624u   458.5200m 
  603.00000m   44.4390u  483.2938m  144.7220u   458.5202m 
  604.00000m   44.9541u  483.2935m  144.3818u   458.5204m 
  605.00000m   45.4728u  483.2933m  144.0419u   458.5206m 
  606.00000m   45.9952u  483.2931m  143.7024u   458.5209m 
  607.00000m   46.5212u  483.2929m  143.3631u   458.5211m 
  608.00000m   47.0509u  483.2927m  143.0241u   458.5213m 
  609.00000m   47.5842u  483.2925m  142.6855u   458.5215m 
  610.00000m   48.1212u  483.2923m  142.3471u   458.5217m 
  611.00000m   48.6618u  483.2921m  142.0091u   458.5219m 
  612.00000m   49.2060u  483.2919m  141.6713u   458.5221m 
  613.00000m   49.7539u  483.2917m  141.3339u   458.5224m 
  614.00000m   50.3054u  483.2914m  140.9968u   458.5226m 
  615.00000m   50.8605u  483.2912m  140.6599u   458.5228m 
  616.00000m   51.4193u  483.2910m  140.3234u   458.5230m 
  617.00000m   51.9816u  483.2908m  139.9872u   458.5232m 
  618.00000m   52.5476u  483.2906m  139.6513u   458.5234m 
  619.00000m   53.1172u  483.2904m  139.3157u   458.5236m 
  620.00000m   53.6905u  483.2902m  138.9803u   458.5239m 
  621.00000m   54.2673u  483.2900m  138.6454u   458.5241m 
  622.00000m   54.8477u  483.2898m  138.3107u   458.5243m 
  623.00000m   55.4318u  483.2896m  137.9763u   458.5245m 
  624.00000m   56.0194u  483.2894m  137.6422u   458.5247m 
  625.00000m   56.6107u  483.2892m  137.3084u   458.5249m 
  626.00000m   57.2055u  483.2889m  136.9750u   458.5251m 
  627.00000m   57.8039u  483.2887m  136.6418u   458.5254m 
  628.00000m   58.4059u  483.2885m  136.3090u   458.5256m 
  629.00000m   59.0115u  483.2883m  135.9765u   458.5258m 
  630.00000m   59.6207u  483.2881m  135.6443u   458.5260m 
  631.00000m   60.2334u  483.2879m  135.3124u   458.5262m 
  632.00000m   60.8497u  483.2877m  134.9808u   458.5264m 
  633.00000m   61.4696u  483.2875m  134.6495u   458.5267m 
  634.00000m   62.0930u  483.2873m  134.3185u   458.5269m 
  635.00000m   62.7200u  483.2871m  133.9878u   458.5271m 
  636.00000m   63.3505u  483.2869m  133.6575u   458.5273m 
  637.00000m   63.9845u  483.2867m  133.3274u   458.5275m 
  638.00000m   64.6221u  483.2865m  132.9977u   458.5277m 
  639.00000m   65.2632u  483.2863m  132.6683u   458.5279m 
  640.00000m   65.9079u  483.2861m  132.3392u   458.5282m 
  641.00000m   66.5561u  483.2859m  132.0104u   458.5284m 
  642.00000m   67.2078u  483.2856m  131.6819u   458.5286m 
  643.00000m   67.8630u  483.2854m  131.3538u   458.5288m 
  644.00000m   68.5217u  483.2852m  131.0259u   458.5290m 
  645.00000m   69.1839u  483.2850m  130.6984u   458.5292m 
  646.00000m   69.8496u  483.2848m  130.3712u   458.5294m 
  647.00000m   70.5188u  483.2846m  130.0443u   458.5297m 
  648.00000m   71.1914u  483.2844m  129.7177u   458.5299m 
  649.00000m   71.8676u  483.2842m  129.3914u   458.5301m 
  650.00000m   72.5472u  483.2840m  129.0655u   458.5303m 
  651.00000m   73.2303u  483.2838m  128.7399u   458.5305m 
  652.00000m   73.9168u  483.2836m  128.4146u   458.5307m 
  653.00000m   74.6068u  483.2834m  128.0896u   458.5310m 
  654.00000m   75.3002u  483.2832m  127.7649u   458.5312m 
  655.00000m   75.9971u  483.2830m  127.4405u   458.5314m 
  656.00000m   76.6974u  483.2828m  127.1165u   458.5316m 
  657.00000m   77.4012u  483.2826m  126.7928u   458.5318m 
  658.00000m   78.1083u  483.2824m  126.4693u   458.5320m 
  659.00000m   78.8189u  483.2822m  126.1463u   458.5322m 
  660.00000m   79.5329u  483.2820m  125.8235u   458.5325m 
  661.00000m   80.2503u  483.2818m  125.5011u   458.5327m 
  662.00000m   80.9711u  483.2816m  125.1789u   458.5329m 
  663.00000m   81.6953u  483.2814m  124.8571u   458.5331m 
  664.00000m   82.4228u  483.2812m  124.5357u   458.5333m 
  665.00000m   83.1538u  483.2810m  124.2145u   458.5335m 
  666.00000m   83.8881u  483.2808m  123.8937u   458.5338m 
  667.00000m   84.6257u  483.2806m  123.5731u   458.5340m 
  668.00000m   85.3667u  483.2804m  123.2530u   458.5342m 
  669.00000m   86.1111u  483.2802m  122.9331u   458.5344m 
  670.00000m   86.8588u  483.2800m  122.6135u   458.5346m 
  671.00000m   87.6099u  483.2798m  122.2943u   458.5348m 
  672.00000m   88.3643u  483.2796m  121.9754u   458.5350m 
  673.00000m   89.1220u  483.2794m  121.6569u   458.5353m 
  674.00000m   89.8830u  483.2792m  121.3386u   458.5355m 
  675.00000m   90.6473u  483.2789m  121.0207u   458.5357m 
  676.00000m   91.4150u  483.2787m  120.7031u   458.5359m 
  677.00000m   92.1859u  483.2785m  120.3858u   458.5361m 
  678.00000m   92.9601u  483.2783m  120.0689u   458.5363m 
  679.00000m   93.7376u  483.2781m  119.7523u   458.5366m 
  680.00000m   94.5184u  483.2779m  119.4360u   458.5368m 
  681.00000m   95.3025u  483.2777m  119.1200u   458.5370m 
  682.00000m   96.0898u  483.2775m  118.8044u   458.5372m 
  683.00000m   96.8804u  483.2773m  118.4891u   458.5374m 
  684.00000m   97.6742u  483.2771m  118.1741u   458.5376m 
  685.00000m   98.4712u  483.2769m  117.8594u   458.5379m 
  686.00000m   99.2715u  483.2767m  117.5451u   458.5381m 
  687.00000m  100.0750u  483.2765m  117.2311u   458.5383m 
  688.00000m  100.8818u  483.2763m  116.9174u   458.5385m 
  689.00000m  101.6917u  483.2762m  116.6041u   458.5387m 
  690.00000m  102.5049u  483.2760m  116.2911u   458.5389m 
  691.00000m  103.3212u  483.2758m  115.9784u   458.5391m 
  692.00000m  104.1408u  483.2756m  115.6661u   458.5394m 
  693.00000m  104.9635u  483.2754m  115.3541u   458.5396m 
  694.00000m  105.7894u  483.2752m  115.0424u   458.5398m 
  695.00000m  106.6185u  483.2750m  114.7311u   458.5400m 
  696.00000m  107.4508u  483.2748m  114.4200u   458.5402m 
  697.00000m  108.2862u  483.2746m  114.1094u   458.5404m 
  698.00000m  109.1248u  483.2744m  113.7990u   458.5407m 
  699.00000m  109.9665u  483.2742m  113.4890u   458.5409m 
  700.00000m  110.8113u  483.2740m  113.1793u   458.5411m 
  701.00000m  111.6593u  483.2738m  112.8700u   458.5413m 
  702.00000m  112.5104u  483.2736m  112.5610u   458.5415m 
  703.00000m  113.3646u  483.2734m  112.2523u   458.5417m 
  704.00000m  114.2219u  483.2732m  111.9439u   458.5420m 
  705.00000m  115.0823u  483.2730m  111.6359u   458.5422m 
  706.00000m  115.9459u  483.2728m  111.3283u   458.5424m 
  707.00000m  116.8125u  483.2726m  111.0209u   458.5426m 
  708.00000m  117.6822u  483.2724m  110.7139u   458.5428m 
  709.00000m  118.5549u  483.2722m  110.4073u   458.5430m 
  710.00000m  119.4308u  483.2720m  110.1009u   458.5433m 
  711.00000m  120.3097u  483.2718m  109.7949u   458.5435m 
  712.00000m  121.1916u  483.2716m  109.4893u   458.5437m 
  713.00000m  122.0766u  483.2714m  109.1840u   458.5439m 
  714.00000m  122.9647u  483.2712m  108.8790u   458.5441m 
  715.00000m  123.8558u  483.2710m  108.5744u   458.5443m 
  716.00000m  124.7499u  483.2708m  108.2701u   458.5445m 
  717.00000m  125.6470u  483.2706m  107.9661u   458.5448m 
  718.00000m  126.5471u  483.2704m  107.6625u   458.5450m 
  719.00000m  127.4503u  483.2702m  107.3592u   458.5452m 
  720.00000m  128.3564u  483.2700m  107.0563u   458.5454m 
  721.00000m  129.2656u  483.2698m  106.7537u   458.5456m 
  722.00000m  130.1777u  483.2696m  106.4515u   458.5458m 
  723.00000m  131.0928u  483.2695m  106.1496u   458.5461m 
  724.00000m  132.0109u  483.2693m  105.8480u   458.5463m 
  725.00000m  132.9319u  483.2691m  105.5468u   458.5465m 
  726.00000m  133.8560u  483.2689m  105.2459u   458.5467m 
  727.00000m  134.7829u  483.2687m  104.9454u   458.5469m 
  728.00000m  135.7128u  483.2685m  104.6452u   458.5471m 
  729.00000m  136.6457u  483.2683m  104.3453u   458.5474m 
  730.00000m  137.5815u  483.2681m  104.0458u   458.5476m 
  731.00000m  138.5202u  483.2679m  103.7466u   458.5478m 
  732.00000m  139.4618u  483.2677m  103.4478u   458.5480m 
  733.00000m  140.4064u  483.2675m  103.1494u   458.5482m 
  734.00000m  141.3538u  483.2673m  102.8512u   458.5484m 
  735.00000m  142.3042u  483.2671m  102.5535u   458.5487m 
  736.00000m  143.2575u  483.2669m  102.2560u   458.5489m 
  737.00000m  144.2136u  483.2667m  101.9589u   458.5491m 
  738.00000m  145.1726u  483.2665m  101.6622u   458.5493m 
  739.00000m  146.1345u  483.2663m  101.3658u   458.5495m 
  740.00000m  147.0993u  483.2662m  101.0698u   458.5497m 
  741.00000m  148.0669u  483.2660m  100.7741u   458.5500m 
  742.00000m  149.0374u  483.2658m  100.4787u   458.5502m 
  743.00000m  150.0107u  483.2656m  100.1837u   458.5504m 
  744.00000m  150.9869u  483.2654m   99.8891u   458.5506m 
  745.00000m  151.9659u  483.2652m   99.5948u   458.5508m 
  746.00000m  152.9478u  483.2650m   99.3008u   458.5510m 
  747.00000m  153.9325u  483.2648m   99.0072u   458.5513m 
  748.00000m  154.9200u  483.2646m   98.7140u   458.5515m 
  749.00000m  155.9103u  483.2644m   98.4211u   458.5517m 
  750.00000m  156.9034u  483.2642m   98.1285u   458.5519m 
  751.00000m  157.8993u  483.2640m   97.8363u   458.5521m 
  752.00000m  158.8980u  483.2638m   97.5445u   458.5523m 
  753.00000m  159.8994u  483.2637m   97.2530u   458.5526m 
  754.00000m  160.9037u  483.2635m   96.9619u   458.5528m 
  755.00000m  161.9108u  483.2633m   96.6711u   458.5530m 
  756.00000m  162.9206u  483.2631m   96.3807u   458.5532m 
  757.00000m  163.9331u  483.2629m   96.0906u   458.5534m 
  758.00000m  164.9485u  483.2627m   95.8009u   458.5536m 
  759.00000m  165.9665u  483.2625m   95.5115u   458.5539m 
  760.00000m  166.9874u  483.2623m   95.2225u   458.5541m 
  761.00000m  168.0109u  483.2621m   94.9338u   458.5543m 
  762.00000m  169.0372u  483.2619m   94.6455u   458.5545m 
  763.00000m  170.0662u  483.2617m   94.3576u   458.5547m 
  764.00000m  171.0979u  483.2616m   94.0700u   458.5549m 
  765.00000m  172.1324u  483.2614m   93.7828u   458.5552m 
  766.00000m  173.1695u  483.2612m   93.4959u   458.5554m 
  767.00000m  174.2094u  483.2610m   93.2094u   458.5556m 
  768.00000m  175.2519u  483.2608m   92.9232u   458.5558m 
  769.00000m  176.2972u  483.2606m   92.6374u   458.5560m 
  770.00000m  177.3451u  483.2604m   92.3520u   458.5562m 
  771.00000m  178.3957u  483.2602m   92.0669u   458.5565m 
  772.00000m  179.4490u  483.2600m   91.7822u   458.5567m 
  773.00000m  180.5049u  483.2598m   91.4978u   458.5569m 
  774.00000m  181.5635u  483.2597m   91.2138u   458.5571m 
  775.00000m  182.6248u  483.2595m   90.9301u   458.5573m 
  776.00000m  183.6887u  483.2593m   90.6469u   458.5576m 
  777.00000m  184.7552u  483.2591m   90.3639u   458.5578m 
  778.00000m  185.8244u  483.2589m   90.0814u   458.5580m 
  779.00000m  186.8962u  483.2587m   89.7992u   458.5582m 
  780.00000m  187.9706u  483.2585m   89.5173u   458.5584m 
  781.00000m  189.0477u  483.2583m   89.2359u   458.5586m 
  782.00000m  190.1274u  483.2581m   88.9548u   458.5589m 
  783.00000m  191.2096u  483.2580m   88.6740u   458.5591m 
  784.00000m  192.2945u  483.2578m   88.3936u   458.5593m 
  785.00000m  193.3820u  483.2576m   88.1136u   458.5595m 
  786.00000m  194.4721u  483.2574m   87.8339u   458.5597m 
  787.00000m  195.5647u  483.2572m   87.5547u   458.5599m 
  788.00000m  196.6599u  483.2570m   87.2757u   458.5602m 
  789.00000m  197.7577u  483.2568m   86.9972u   458.5604m 
  790.00000m  198.8581u  483.2566m   86.7190u   458.5606m 
  791.00000m  199.9611u  483.2565m   86.4411u   458.5608m 
  792.00000m  201.0665u  483.2563m   86.1637u   458.5610m 
  793.00000m  202.1746u  483.2561m   85.8866u   458.5612m 
  794.00000m  203.2852u  483.2559m   85.6099u   458.5615m 
  795.00000m  204.3983u  483.2557m   85.3335u   458.5617m 
  796.00000m  205.5140u  483.2555m   85.0575u   458.5619m 
  797.00000m  206.6322u  483.2553m   84.7819u   458.5621m 
  798.00000m  207.7529u  483.2551m   84.5066u   458.5623m 
  799.00000m  208.8761u  483.2550m   84.2317u   458.5626m 
  800.00000m  210.0019u  483.2548m   83.9572u   458.5628m 
  801.00000m  211.1302u  483.2546m   83.6831u   458.5630m 
  802.00000m  212.2609u  483.2544m   83.4093u   458.5632m 
  803.00000m  213.3942u  483.2542m   83.1359u   458.5634m 
  804.00000m  214.5299u  483.2540m   82.8629u   458.5636m 
  805.00000m  215.6682u  483.2538m   82.5902u   458.5639m 
  806.00000m  216.8089u  483.2536m   82.3179u   458.5641m 
  807.00000m  217.9521u  483.2535m   82.0460u   458.5643m 
  808.00000m  219.0977u  483.2533m   81.7744u   458.5645m 
  809.00000m  220.2459u  483.2531m   81.5033u   458.5647m 
  810.00000m  221.3965u  483.2529m   81.2325u   458.5649m 
  811.00000m  222.5495u  483.2527m   80.9620u   458.5652m 
  812.00000m  223.7050u  483.2525m   80.6920u   458.5654m 
  813.00000m  224.8629u  483.2523m   80.4223u   458.5656m 
  814.00000m  226.0233u  483.2522m   80.1530u   458.5658m 
  815.00000m  227.1861u  483.2520m   79.8841u   458.5660m 
  816.00000m  228.3513u  483.2518m   79.6155u   458.5663m 
  817.00000m  229.5190u  483.2516m   79.3473u   458.5665m 
  818.00000m  230.6891u  483.2514m   79.0795u   458.5667m 
  819.00000m  231.8616u  483.2512m   78.8121u   458.5669m 
  820.00000m  233.0365u  483.2510m   78.5451u   458.5671m 
  821.00000m  234.2138u  483.2509m   78.2784u   458.5673m 
  822.00000m  235.3934u  483.2507m   78.0121u   458.5676m 
  823.00000m  236.5755u  483.2505m   77.7462u   458.5678m 
  824.00000m  237.7600u  483.2503m   77.4806u   458.5680m 
  825.00000m  238.9469u  483.2501m   77.2155u   458.5682m 
  826.00000m  240.1361u  483.2499m   76.9507u   458.5684m 
  827.00000m  241.3277u  483.2498m   76.6863u   458.5687m 
  828.00000m  242.5217u  483.2496m   76.4223u   458.5689m 
  829.00000m  243.7180u  483.2494m   76.1586u   458.5691m 
  830.00000m  244.9167u  483.2492m   75.8954u   458.5693m 
  831.00000m  246.1177u  483.2490m   75.6325u   458.5695m 
  832.00000m  247.3211u  483.2488m   75.3700u   458.5697m 
  833.00000m  248.5268u  483.2487m   75.1079u   458.5700m 
  834.00000m  249.7349u  483.2485m   74.8462u   458.5702m 
  835.00000m  250.9453u  483.2483m   74.5848u   458.5704m 
  836.00000m  252.1580u  483.2481m   74.3238u   458.5706m 
  837.00000m  253.3730u  483.2479m   74.0633u   458.5708m 
  838.00000m  254.5904u  483.2477m   73.8031u   458.5711m 
  839.00000m  255.8101u  483.2476m   73.5432u   458.5713m 
  840.00000m  257.0320u  483.2474m   73.2838u   458.5715m 
  841.00000m  258.2563u  483.2472m   73.0248u   458.5717m 
  842.00000m  259.4829u  483.2470m   72.7661u   458.5719m 
  843.00000m  260.7117u  483.2468m   72.5078u   458.5721m 
  844.00000m  261.9429u  483.2466m   72.2499u   458.5724m 
  845.00000m  263.1763u  483.2465m   71.9924u   458.5726m 
  846.00000m  264.4120u  483.2463m   71.7353u   458.5728m 
  847.00000m  265.6500u  483.2461m   71.4786u   458.5730m 
  848.00000m  266.8903u  483.2459m   71.2222u   458.5732m 
  849.00000m  268.1328u  483.2457m   70.9663u   458.5735m 
  850.00000m  269.3776u  483.2455m   70.7107u   458.5737m 
  851.00000m  270.6246u  483.2454m   70.4555u   458.5739m 
  852.00000m  271.8739u  483.2452m   70.2007u   458.5741m 
  853.00000m  273.1254u  483.2450m   69.9463u   458.5743m 
  854.00000m  274.3791u  483.2448m   69.6923u   458.5745m 
  855.00000m  275.6351u  483.2446m   69.4387u   458.5748m 
  856.00000m  276.8933u  483.2445m   69.1855u   458.5750m 
  857.00000m  278.1538u  483.2443m   68.9326u   458.5752m 
  858.00000m  279.4165u  483.2441m   68.6802u   458.5754m 
  859.00000m  280.6813u  483.2439m   68.4281u   458.5756m 
  860.00000m  281.9484u  483.2437m   68.1765u   458.5759m 
  861.00000m  283.2177u  483.2435m   67.9252u   458.5761m 
  862.00000m  284.4892u  483.2434m   67.6743u   458.5763m 
  863.00000m  285.7629u  483.2432m   67.4238u   458.5765m 
  864.00000m  287.0388u  483.2430m   67.1737u   458.5767m 
  865.00000m  288.3169u  483.2428m   66.9240u   458.5770m 
  866.00000m  289.5971u  483.2426m   66.6747u   458.5772m 
  867.00000m  290.8795u  483.2425m   66.4258u   458.5774m 
  868.00000m  292.1641u  483.2423m   66.1773u   458.5776m 
  869.00000m  293.4509u  483.2421m   65.9292u   458.5778m 
  870.00000m  294.7399u  483.2419m   65.6815u   458.5780m 
  871.00000m  296.0310u  483.2417m   65.4341u   458.5783m 
  872.00000m  297.3242u  483.2416m   65.1872u   458.5785m 
  873.00000m  298.6196u  483.2414m   64.9407u   458.5787m 
  874.00000m  299.9172u  483.2412m   64.6945u   458.5789m 
  875.00000m  301.2168u  483.2410m   64.4488u   458.5791m 
  876.00000m  302.5187u  483.2408m   64.2034u   458.5794m 
  877.00000m  303.8226u  483.2407m   63.9585u   458.5796m 
  878.00000m  305.1287u  483.2405m   63.7140u   458.5798m 
  879.00000m  306.4369u  483.2403m   63.4698u   458.5800m 
  880.00000m  307.7472u  483.2401m   63.2261u   458.5802m 
  881.00000m  309.0597u  483.2399m   62.9827u   458.5805m 
  882.00000m  310.3742u  483.2398m   62.7398u   458.5807m 
  883.00000m  311.6909u  483.2396m   62.4972u   458.5809m 
  884.00000m  313.0096u  483.2394m   62.2551u   458.5811m 
  885.00000m  314.3305u  483.2392m   62.0134u   458.5813m 
  886.00000m  315.6534u  483.2390m   61.7720u   458.5816m 
  887.00000m  316.9784u  483.2389m   61.5311u   458.5818m 
  888.00000m  318.3055u  483.2387m   61.2906u   458.5820m 
  889.00000m  319.6347u  483.2385m   61.0504u   458.5822m 
  890.00000m  320.9660u  483.2383m   60.8107u   458.5824m 
  891.00000m  322.2993u  483.2381m   60.5714u   458.5827m 
  892.00000m  323.6347u  483.2380m   60.3325u   458.5829m 
  893.00000m  324.9722u  483.2378m   60.0940u   458.5831m 
  894.00000m  326.3117u  483.2376m   59.8559u   458.5833m 
  895.00000m  327.6532u  483.2374m   59.6182u   458.5835m 
  896.00000m  328.9969u  483.2373m   59.3809u   458.5837m 
  897.00000m  330.3425u  483.2371m   59.1440u   458.5840m 
  898.00000m  331.6902u  483.2369m   58.9075u   458.5842m 
  899.00000m  333.0399u  483.2367m   58.6714u   458.5844m 
  900.00000m  334.3917u  483.2365m   58.4357u   458.5846m 
  901.00000m  335.7455u  483.2364m   58.2005u   458.5848m 
  902.00000m  337.1013u  483.2362m   57.9656u   458.5851m 
  903.00000m  338.4591u  483.2360m   57.7312u   458.5853m 
  904.00000m  339.8189u  483.2358m   57.4972u   458.5855m 
  905.00000m  341.1807u  483.2356m   57.2635u   458.5857m 
  906.00000m  342.5446u  483.2355m   57.0303u   458.5859m 
  907.00000m  343.9104u  483.2353m   56.7975u   458.5862m 
  908.00000m  345.2783u  483.2351m   56.5651u   458.5864m 
  909.00000m  346.6481u  483.2349m   56.3332u   458.5866m 
  910.00000m  348.0199u  483.2348m   56.1016u   458.5868m 
  911.00000m  349.3937u  483.2346m   55.8704u   458.5870m 
  912.00000m  350.7695u  483.2344m   55.6397u   458.5873m 
  913.00000m  352.1472u  483.2342m   55.4094u   458.5875m 
  914.00000m  353.5269u  483.2341m   55.1794u   458.5877m 
  915.00000m  354.9086u  483.2339m   54.9499u   458.5879m 
  916.00000m  356.2923u  483.2337m   54.7208u   458.5881m 
  917.00000m  357.6779u  483.2335m   54.4922u   458.5884m 
  918.00000m  359.0654u  483.2333m   54.2639u   458.5886m 
  919.00000m  360.4549u  483.2332m   54.0361u   458.5888m 
  920.00000m  361.8464u  483.2330m   53.8086u   458.5890m 
  921.00000m  363.2398u  483.2328m   53.5816u   458.5892m 
  922.00000m  364.6351u  483.2326m   53.3550u   458.5895m 
  923.00000m  366.0323u  483.2325m   53.1288u   458.5897m 
  924.00000m  367.4315u  483.2323m   52.9031u   458.5899m 
  925.00000m  368.8326u  483.2321m   52.6777u   458.5901m 
  926.00000m  370.2356u  483.2319m   52.4528u   458.5903m 
  927.00000m  371.6406u  483.2318m   52.2283u   458.5906m 
  928.00000m  373.0474u  483.2316m   52.0042u   458.5908m 
  929.00000m  374.4562u  483.2314m   51.7805u   458.5910m 
  930.00000m  375.8668u  483.2312m   51.5573u   458.5912m 
  931.00000m  377.2794u  483.2311m   51.3344u   458.5914m 
  932.00000m  378.6938u  483.2309m   51.1120u   458.5917m 
  933.00000m  380.1102u  483.2307m   50.8900u   458.5919m 
  934.00000m  381.5284u  483.2305m   50.6685u   458.5921m 
  935.00000m  382.9485u  483.2304m   50.4473u   458.5923m 
  936.00000m  384.3705u  483.2302m   50.2266u   458.5925m 
  937.00000m  385.7944u  483.2300m   50.0063u   458.5928m 
  938.00000m  387.2201u  483.2298m   49.7864u   458.5930m 
  939.00000m  388.6477u  483.2297m   49.5670u   458.5932m 
  940.00000m  390.0771u  483.2295m   49.3479u   458.5934m 
  941.00000m  391.5085u  483.2293m   49.1293u   458.5936m 
  942.00000m  392.9416u  483.2291m   48.9112u   458.5939m 
  943.00000m  394.3766u  483.2290m   48.6934u   458.5941m 
  944.00000m  395.8135u  483.2288m   48.4761u   458.5943m 
  945.00000m  397.2522u  483.2286m   48.2592u   458.5945m 
  946.00000m  398.6927u  483.2284m   48.0427u   458.5947m 
  947.00000m  400.1351u  483.2283m   47.8266u   458.5950m 
  948.00000m  401.5793u  483.2281m   47.6110u   458.5952m 
  949.00000m  403.0253u  483.2279m   47.3958u   458.5954m 
  950.00000m  404.4732u  483.2277m   47.1811u   458.5956m 
  951.00000m  405.9228u  483.2276m   46.9667u   458.5958m 
  952.00000m  407.3743u  483.2274m   46.7528u   458.5961m 
  953.00000m  408.8276u  483.2272m   46.5393u   458.5963m 
  954.00000m  410.2827u  483.2270m   46.3263u   458.5965m 
  955.00000m  411.7396u  483.2269m   46.1136u   458.5967m 
  956.00000m  413.1983u  483.2267m   45.9015u   458.5969m 
  957.00000m  414.6588u  483.2265m   45.6897u   458.5972m 
  958.00000m  416.1210u  483.2263m   45.4784u   458.5974m 
  959.00000m  417.5851u  483.2262m   45.2675u   458.5976m 
  960.00000m  419.0509u  483.2260m   45.0570u   458.5978m 
  961.00000m  420.5186u  483.2258m   44.8470u   458.5980m 
  962.00000m  421.9879u  483.2256m   44.6374u   458.5983m 
  963.00000m  423.4591u  483.2255m   44.4282u   458.5985m 
  964.00000m  424.9320u  483.2253m   44.2195u   458.5987m 
  965.00000m  426.4067u  483.2251m   44.0112u   458.5989m 
  966.00000m  427.8831u  483.2250m   43.8034u   458.5992m 
  967.00000m  429.3613u  483.2248m   43.5959u   458.5994m 
  968.00000m  430.8413u  483.2246m   43.3889u   458.5996m 
  969.00000m  432.3230u  483.2244m   43.1824u   458.5998m 
  970.00000m  433.8064u  483.2243m   42.9763u   458.6000m 
  971.00000m  435.2916u  483.2241m   42.7706u   458.6003m 
  972.00000m  436.7785u  483.2239m   42.5654u   458.6005m 
  973.00000m  438.2671u  483.2237m   42.3606u   458.6007m 
  974.00000m  439.7575u  483.2236m   42.1562u   458.6009m 
  975.00000m  441.2496u  483.2234m   41.9523u   458.6011m 
  976.00000m  442.7434u  483.2232m   41.7488u   458.6014m 
  977.00000m  444.2389u  483.2230m   41.5458u   458.6016m 
  978.00000m  445.7361u  483.2229m   41.3432u   458.6018m 
  979.00000m  447.2351u  483.2227m   41.1410u   458.6020m 
  980.00000m  448.7357u  483.2225m   40.9393u   458.6022m 
  981.00000m  450.2380u  483.2224m   40.7380u   458.6025m 
  982.00000m  451.7421u  483.2222m   40.5372u   458.6027m 
  983.00000m  453.2478u  483.2220m   40.3368u   458.6029m 
  984.00000m  454.7552u  483.2218m   40.1368u   458.6031m 
  985.00000m  456.2643u  483.2217m   39.9373u   458.6034m 
  986.00000m  457.7751u  483.2215m   39.7383u   458.6036m 
  987.00000m  459.2876u  483.2213m   39.5396u   458.6038m 
  988.00000m  460.8017u  483.2212m   39.3415u   458.6040m 
  989.00000m  462.3175u  483.2210m   39.1437u   458.6042m 
  990.00000m  463.8349u  483.2208m   38.9465u   458.6045m 
  991.00000m  465.3541u  483.2206m   38.7496u   458.6047m 
  992.00000m  466.8748u  483.2205m   38.5532u   458.6049m 
  993.00000m  468.3973u  483.2203m   38.3573u   458.6051m 
  994.00000m  469.9214u  483.2201m   38.1618u   458.6053m 
  995.00000m  471.4471u  483.2200m   37.9668u   458.6056m 
  996.00000m  472.9745u  483.2198m   37.7722u   458.6058m 
  997.00000m  474.5035u  483.2196m   37.5780u   458.6060m 
  998.00000m  476.0341u  483.2194m   37.3843u   458.6062m 
  999.00000m  477.5664u  483.2193m   37.1911u   458.6064m 
    1.00000   479.1003u  483.2191m   36.9983u   458.6067m 
    1.00100   480.6358u  483.2189m   36.8060u   458.6069m 
    1.00200   482.1730u  483.2188m   36.6141u   458.6071m 
    1.00300   483.7118u  483.2186m   36.4226u   458.6073m 
    1.00400   485.2521u  483.2184m   36.2317u   458.6076m 
    1.00500   486.7941u  483.2182m   36.0411u   458.6078m 
    1.00600   488.3377u  483.2181m   35.8510u   458.6080m 
    1.00700   489.8829u  483.2179m   35.6614u   458.6082m 
    1.00800   491.4297u  483.2177m   35.4722u   458.6084m 
    1.00900   492.9781u  483.2176m   35.2835u   458.6087m 
    1.01000   494.5281u  483.2174m   35.0953u   458.6089m 
    1.01100   496.0796u  483.2172m   34.9075u   458.6091m 
    1.01200   497.6328u  483.2171m   34.7201u   458.6093m 
    1.01300   499.1875u  483.2169m   34.5332u   458.6096m 
    1.01400   500.7438u  483.2167m   34.3468u   458.6098m 
    1.01500   502.3017u  483.2165m   34.1608u   458.6100m 
    1.01600   503.8611u  483.2164m   33.9753u   458.6102m 
    1.01700   505.4222u  483.2162m   33.7903u   458.6104m 
    1.01800   506.9847u  483.2160m   33.6057u   458.6107m 
    1.01900   508.5489u  483.2159m   33.4215u   458.6109m 
    1.02000   510.1145u  483.2157m   33.2379u   458.6111m 
    1.02100   511.6818u  483.2155m   33.0546u   458.6113m 
    1.02200   513.2505u  483.2154m   32.8719u   458.6115m 
    1.02300   514.8209u  483.2152m   32.6896u   458.6118m 
    1.02400   516.3927u  483.2150m   32.5078u   458.6120m 
    1.02500   517.9661u  483.2148m   32.3264u   458.6122m 
    1.02600   519.5410u  483.2147m   32.1455u   458.6124m 
    1.02700   521.1175u  483.2145m   31.9651u   458.6127m 
    1.02800   522.6955u  483.2143m   31.7851u   458.6129m 
    1.02900   524.2750u  483.2142m   31.6056u   458.6131m 
    1.03000   525.8560u  483.2140m   31.4266u   458.6133m 
    1.03100   527.4385u  483.2138m   31.2480u   458.6135m 
    1.03200   529.0226u  483.2137m   31.0699u   458.6138m 
    1.03300   530.6081u  483.2135m   30.8922u   458.6140m 
    1.03400   532.1952u  483.2133m   30.7151u   458.6142m 
    1.03500   533.7838u  483.2132m   30.5384u   458.6144m 
    1.03600   535.3738u  483.2130m   30.3621u   458.6147m 
    1.03700   536.9654u  483.2128m   30.1864u   458.6149m 
    1.03800   538.5584u  483.2126m   30.0111u   458.6151m 
    1.03900   540.1529u  483.2125m   29.8362u   458.6153m 
    1.04000   541.7489u  483.2123m   29.6619u   458.6155m 
    1.04100   543.3464u  483.2121m   29.4880u   458.6158m 
    1.04200   544.9454u  483.2120m   29.3146u   458.6160m 
    1.04300   546.5458u  483.2118m   29.1417u   458.6162m 
    1.04400   548.1477u  483.2116m   28.9692u   458.6164m 
    1.04500   549.7510u  483.2115m   28.7972u   458.6167m 
    1.04600   551.3559u  483.2113m   28.6257u   458.6169m 
    1.04700   552.9621u  483.2111m   28.4547u   458.6171m 
    1.04800   554.5699u  483.2110m   28.2841u   458.6173m 
    1.04900   556.1791u  483.2108m   28.1140u   458.6175m 
    1.05000   557.7897u  483.2106m   27.9444u   458.6178m 
    1.05100   559.4018u  483.2105m   27.7753u   458.6180m 
    1.05200   561.0153u  483.2103m   27.6066u   458.6182m 
    1.05300   562.6302u  483.2101m   27.4385u   458.6184m 
    1.05400   564.2466u  483.2100m   27.2708u   458.6187m 
    1.05500   565.8644u  483.2098m   27.1035u   458.6189m 
    1.05600   567.4837u  483.2096m   26.9368u   458.6191m 
    1.05700   569.1043u  483.2095m   26.7706u   458.6193m 
    1.05800   570.7264u  483.2093m   26.6048u   458.6196m 
    1.05900   572.3499u  483.2091m   26.4395u   458.6198m 
    1.06000   573.9748u  483.2089m   26.2747u   458.6200m 
    1.06100   575.6011u  483.2088m   26.1104u   458.6202m 
    1.06200   577.2289u  483.2086m   25.9465u   458.6204m 
    1.06300   578.8580u  483.2084m   25.7832u   458.6207m 
    1.06400   580.4885u  483.2083m   25.6203u   458.6209m 
    1.06500   582.1204u  483.2081m   25.4579u   458.6211m 
    1.06600   583.7538u  483.2079m   25.2960u   458.6213m 
    1.06700   585.3885u  483.2078m   25.1346u   458.6216m 
    1.06800   587.0245u  483.2076m   24.9737u   458.6218m 
    1.06900   588.6620u  483.2074m   24.8132u   458.6220m 
    1.07000   590.3009u  483.2073m   24.6533u   458.6222m 
    1.07100   591.9411u  483.2071m   24.4938u   458.6224m 
    1.07200   593.5827u  483.2069m   24.3349u   458.6227m 
    1.07300   595.2256u  483.2068m   24.1764u   458.6229m 
    1.07400   596.8700u  483.2066m   24.0184u   458.6231m 
    1.07500   598.5157u  483.2064m   23.8609u   458.6233m 
    1.07600   600.1627u  483.2063m   23.7039u   458.6236m 
    1.07700   601.8111u  483.2061m   23.5474u   458.6238m 
    1.07800   603.4609u  483.2059m   23.3914u   458.6240m 
    1.07900   605.1120u  483.2058m   23.2358u   458.6242m 
    1.08000   606.7644u  483.2056m   23.0808u   458.6245m 
    1.08100   608.4182u  483.2054m   22.9263u   458.6247m 
    1.08200   610.0733u  483.2053m   22.7722u   458.6249m 
    1.08300   611.7298u  483.2051m   22.6187u   458.6251m 
    1.08400   613.3875u  483.2049m   22.4657u   458.6254m 
    1.08500   615.0467u  483.2048m   22.3131u   458.6256m 
    1.08600   616.7071u  483.2046m   22.1611u   458.6258m 
    1.08700   618.3689u  483.2044m   22.0095u   458.6260m 
    1.08800   620.0319u  483.2043m   21.8585u   458.6262m 
    1.08900   621.6963u  483.2041m   21.7080u   458.6265m 
    1.09000   623.3620u  483.2039m   21.5579u   458.6267m 
    1.09100   625.0291u  483.2038m   21.4084u   458.6269m 
    1.09200   626.6974u  483.2036m   21.2593u   458.6271m 
    1.09300   628.3670u  483.2035m   21.1108u   458.6274m 
    1.09400   630.0379u  483.2033m   20.9628u   458.6276m 
    1.09500   631.7101u  483.2031m   20.8152u   458.6278m 
    1.09600   633.3836u  483.2030m   20.6682u   458.6280m 
    1.09700   635.0584u  483.2028m   20.5217u   458.6283m 
    1.09800   636.7345u  483.2026m   20.3757u   458.6285m 
    1.09900   638.4119u  483.2025m   20.2302u   458.6287m 
    1.10000   640.0905u  483.2023m   20.0852u   458.6289m 
    1.10100   641.7704u  483.2021m   19.9407u   458.6292m 
    1.10200   643.4516u  483.2020m   19.7968u   458.6294m 
    1.10300   645.1340u  483.2018m   19.6533u   458.6296m 
    1.10400   646.8178u  483.2016m   19.5104u   458.6298m 
    1.10500   648.5027u  483.2015m   19.3679u   458.6300m 
    1.10600   650.1890u  483.2013m   19.2260u   458.6303m 
    1.10700   651.8765u  483.2011m   19.0846u   458.6305m 
    1.10800   653.5652u  483.2010m   18.9437u   458.6307m 
    1.10900   655.2552u  483.2008m   18.8033u   458.6309m 
    1.11000   656.9465u  483.2006m   18.6634u   458.6312m 
    1.11100   658.6390u  483.2005m   18.5241u   458.6314m 
    1.11200   660.3327u  483.2003m   18.3853u   458.6316m 
    1.11300   662.0276u  483.2001m   18.2469u   458.6318m 
    1.11400   663.7238u  483.2000m   18.1091u   458.6321m 
    1.11500   665.4213u  483.1998m   17.9719u   458.6323m 
    1.11600   667.1199u  483.1997m   17.8351u   458.6325m 
    1.11700   668.8198u  483.1995m   17.6989u   458.6327m 
    1.11800   670.5209u  483.1993m   17.5631u   458.6330m 
    1.11900   672.2232u  483.1992m   17.4279u   458.6332m 
    1.12000   673.9267u  483.1990m   17.2933u   458.6334m 
    1.12100   675.6315u  483.1988m   17.1591u   458.6336m 
    1.12200   677.3374u  483.1987m   17.0255u   458.6339m 
    1.12300   679.0446u  483.1985m   16.8924u   458.6341m 
    1.12400   680.7529u  483.1983m   16.7598u   458.6343m 
    1.12500   682.4625u  483.1982m   16.6277u   458.6345m 
    1.12600   684.1732u  483.1980m   16.4962u   458.6348m 
    1.12700   685.8852u  483.1978m   16.3652u   458.6350m 
    1.12800   687.5983u  483.1977m   16.2348u   458.6352m 
    1.12900   689.3126u  483.1975m   16.1048u   458.6354m 
    1.13000   691.0281u  483.1974m   15.9754u   458.6356m 
    1.13100   692.7448u  483.1972m   15.8465u   458.6359m 
    1.13200   694.4626u  483.1970m   15.7182u   458.6361m 
    1.13300   696.1816u  483.1969m   15.5904u   458.6363m 
    1.13400   697.9018u  483.1967m   15.4631u   458.6365m 
    1.13500   699.6232u  483.1965m   15.3363u   458.6368m 
    1.13600   701.3457u  483.1964m   15.2101u   458.6370m 
    1.13700   703.0694u  483.1962m   15.0844u   458.6372m 
    1.13800   704.7943u  483.1960m   14.9593u   458.6374m 
    1.13900   706.5202u  483.1959m   14.8347u   458.6377m 
    1.14000   708.2474u  483.1957m   14.7106u   458.6379m 
    1.14100   709.9757u  483.1956m   14.5871u   458.6381m 
    1.14200   711.7051u  483.1954m   14.4641u   458.6383m 
    1.14300   713.4357u  483.1952m   14.3416u   458.6386m 
    1.14400   715.1675u  483.1951m   14.2197u   458.6388m 
    1.14500   716.9003u  483.1949m   14.0984u   458.6390m 
    1.14600   718.6343u  483.1947m   13.9775u   458.6392m 
    1.14700   720.3694u  483.1946m   13.8572u   458.6395m 
    1.14800   722.1057u  483.1944m   13.7375u   458.6397m 
    1.14900   723.8431u  483.1942m   13.6183u   458.6399m 
    1.15000   725.5816u  483.1941m   13.4996u   458.6401m 
    1.15100   727.3212u  483.1939m   13.3815u   458.6404m 
    1.15200   729.0619u  483.1938m   13.2640u   458.6406m 
    1.15300   730.8038u  483.1936m   13.1469u   458.6408m 
    1.15400   732.5467u  483.1934m   13.0305u   458.6410m 
    1.15500   734.2908u  483.1933m   12.9146u   458.6413m 
    1.15600   736.0359u  483.1931m   12.7992u   458.6415m 
    1.15700   737.7822u  483.1929m   12.6844u   458.6417m 
    1.15800   739.5295u  483.1928m   12.5701u   458.6419m 
    1.15900   741.2780u  483.1926m   12.4564u   458.6422m 
    1.16000   743.0275u  483.1925m   12.3432u   458.6424m 
    1.16100   744.7781u  483.1923m   12.2306u   458.6426m 
    1.16200   746.5299u  483.1921m   12.1185u   458.6428m 
    1.16300   748.2827u  483.1920m   12.0070u   458.6431m 
    1.16400   750.0365u  483.1918m   11.8961u   458.6433m 
    1.16500   751.7915u  483.1916m   11.7857u   458.6435m 
    1.16600   753.5475u  483.1915m   11.6758u   458.6437m 
    1.16700   755.3046u  483.1913m   11.5665u   458.6440m 
    1.16800   757.0628u  483.1912m   11.4578u   458.6442m 
    1.16900   758.8220u  483.1910m   11.3497u   458.6444m 
    1.17000   760.5823u  483.1908m   11.2420u   458.6446m 
    1.17100   762.3436u  483.1907m   11.1350u   458.6449m 
    1.17200   764.1060u  483.1905m   11.0285u   458.6451m 
    1.17300   765.8694u  483.1903m   10.9226u   458.6453m 
    1.17400   767.6339u  483.1902m   10.8172u   458.6455m 
    1.17500   769.3995u  483.1900m   10.7124u   458.6458m 
    1.17600   771.1661u  483.1899m   10.6082u   458.6460m 
    1.17700   772.9337u  483.1897m   10.5045u   458.6462m 
    1.17800   774.7024u  483.1895m   10.4014u   458.6465m 
    1.17900   776.4721u  483.1894m   10.2988u   458.6467m 
    1.18000   778.2428u  483.1892m   10.1969u   458.6469m 
    1.18100   780.0146u  483.1890m   10.0954u   458.6471m 
    1.18200   781.7873u  483.1889m    9.9946u   458.6474m 
    1.18300   783.5611u  483.1887m    9.8943u   458.6476m 
    1.18400   785.3360u  483.1886m    9.7946u   458.6478m 
    1.18500   787.1118u  483.1884m    9.6955u   458.6480m 
    1.18600   788.8887u  483.1882m    9.5969u   458.6483m 
    1.18700   790.6666u  483.1881m    9.4989u   458.6485m 
    1.18800   792.4454u  483.1879m    9.4014u   458.6487m 
    1.18900   794.2253u  483.1878m    9.3046u   458.6489m 
    1.19000   796.0062u  483.1876m    9.2083u   458.6492m 
    1.19100   797.7881u  483.1874m    9.1125u   458.6494m 
    1.19200   799.5710u  483.1873m    9.0174u   458.6496m 
    1.19300   801.3549u  483.1871m    8.9228u   458.6498m 
    1.19400   803.1397u  483.1869m    8.8288u   458.6501m 
    1.19500   804.9256u  483.1868m    8.7354u   458.6503m 
    1.19600   806.7124u  483.1866m    8.6425u   458.6505m 
    1.19700   808.5003u  483.1865m    8.5502u   458.6507m 
    1.19800   810.2891u  483.1863m    8.4585u   458.6510m 
    1.19900   812.0788u  483.1861m    8.3674u   458.6512m 
    1.20000   813.8696u  483.1860m    8.2768u   458.6514m 
    1.20100   815.6613u  483.1858m    8.1868u   458.6516m 
    1.20200   817.4540u  483.1857m    8.0974u   458.6519m 
    1.20300   819.2477u  483.1855m    8.0086u   458.6521m 
    1.20400   821.0423u  483.1853m    7.9203u   458.6523m 
    1.20500   822.8379u  483.1852m    7.8327u   458.6526m 
    1.20600   824.6344u  483.1850m    7.7456u   458.6528m 
    1.20700   826.4319u  483.1849m    7.6590u   458.6530m 
    1.20800   828.2304u  483.1847m    7.5731u   458.6532m 
    1.20900   830.0298u  483.1845m    7.4877u   458.6535m 
    1.21000   831.8301u  483.1844m    7.4029u   458.6537m 
    1.21100   833.6314u  483.1842m    7.3187u   458.6539m 
    1.21200   835.4336u  483.1841m    7.2351u   458.6541m 
    1.21300   837.2368u  483.1839m    7.1521u   458.6544m 
    1.21400   839.0409u  483.1837m    7.0696u   458.6546m 
    1.21500   840.8459u  483.1836m    6.9877u   458.6548m 
    1.21600   842.6519u  483.1834m    6.9064u   458.6550m 
    1.21700   844.4588u  483.1833m    6.8256u   458.6553m 
    1.21800   846.2666u  483.1831m    6.7455u   458.6555m 
    1.21900   848.0753u  483.1829m    6.6659u   458.6557m 
    1.22000   849.8850u  483.1828m    6.5869u   458.6560m 
    1.22100   851.6955u  483.1826m    6.5085u   458.6562m 
    1.22200   853.5070u  483.1824m    6.4306u   458.6564m 
    1.22300   855.3194u  483.1823m    6.3534u   458.6566m 
    1.22400   857.1327u  483.1821m    6.2767u   458.6569m 
    1.22500   858.9469u  483.1820m    6.2006u   458.6571m 
    1.22600   860.7620u  483.1818m    6.1251u   458.6573m 
    1.22700   862.5780u  483.1816m    6.0501u   458.6575m 
    1.22800   864.3949u  483.1815m    5.9758u   458.6578m 
    1.22900   866.2127u  483.1813m    5.9020u   458.6580m 
    1.23000   868.0314u  483.1812m    5.8288u   458.6582m 
    1.23100   869.8510u  483.1810m    5.7561u   458.6584m 
    1.23200   871.6714u  483.1808m    5.6841u   458.6587m 
    1.23300   873.4928u  483.1807m    5.6126u   458.6589m 
    1.23400   875.3150u  483.1805m    5.5417u   458.6591m 
    1.23500   877.1381u  483.1804m    5.4713u   458.6594m 
    1.23600   878.9621u  483.1802m    5.4016u   458.6596m 
    1.23700   880.7869u  483.1800m    5.3324u   458.6598m 
    1.23800   882.6126u  483.1799m    5.2638u   458.6600m 
    1.23900   884.4392u  483.1797m    5.1958u   458.6603m 
    1.24000   886.2666u  483.1796m    5.1283u   458.6605m 
    1.24100   888.0949u  483.1794m    5.0614u   458.6607m 
    1.24200   889.9241u  483.1793m    4.9951u   458.6609m 
    1.24300   891.7541u  483.1791m    4.9294u   458.6612m 
    1.24400   893.5850u  483.1789m    4.8642u   458.6614m 
    1.24500   895.4167u  483.1788m    4.7996u   458.6616m 
    1.24600   897.2493u  483.1786m    4.7356u   458.6619m 
    1.24700   899.0827u  483.1785m    4.6721u   458.6621m 
    1.24800   900.9170u  483.1783m    4.6092u   458.6623m 
    1.24900   902.7521u  483.1781m    4.5469u   458.6625m 
    1.25000   904.5880u  483.1780m    4.4851u   458.6628m 
    1.25100   906.4248u  483.1778m    4.4239u   458.6630m 
    1.25200   908.2624u  483.1777m    4.3633u   458.6632m 
    1.25300   910.1009u  483.1775m    4.3032u   458.6635m 
    1.25400   911.9401u  483.1773m    4.2437u   458.6637m 
    1.25500   913.7802u  483.1772m    4.1847u   458.6639m 
    1.25600   915.6211u  483.1770m    4.1263u   458.6641m 
    1.25700   917.4629u  483.1769m    4.0685u   458.6644m 
    1.25800   919.3054u  483.1767m    4.0112u   458.6646m 
    1.25900   921.1488u  483.1765m    3.9544u   458.6648m 
    1.26000   922.9929u  483.1764m    3.8983u   458.6650m 
    1.26100   924.8379u  483.1762m    3.8426u   458.6653m 
    1.26200   926.6837u  483.1761m    3.7876u   458.6655m 
    1.26300   928.5303u  483.1759m    3.7330u   458.6657m 
    1.26400   930.3777u  483.1757m    3.6791u   458.6660m 
    1.26500   932.2259u  483.1756m    3.6256u   458.6662m 
    1.26600   934.0749u  483.1754m    3.5728u   458.6664m 
    1.26700   935.9247u  483.1753m    3.5204u   458.6666m 
    1.26800   937.7752u  483.1751m    3.4686u   458.6669m 
    1.26900   939.6266u  483.1750m    3.4174u   458.6671m 
    1.27000   941.4787u  483.1748m    3.3666u   458.6673m 
    1.27100   943.3317u  483.1746m    3.3164u   458.6676m 
    1.27200   945.1854u  483.1745m    3.2668u   458.6678m 
    1.27300   947.0399u  483.1743m    3.2177u   458.6680m 
    1.27400   948.8951u  483.1742m    3.1691u   458.6682m 
    1.27500   950.7512u  483.1740m    3.1210u   458.6685m 
    1.27600   952.6080u  483.1738m    3.0735u   458.6687m 
    1.27700   954.4656u  483.1737m    3.0265u   458.6689m 
    1.27800   956.3239u  483.1735m    2.9800u   458.6692m 
    1.27900   958.1830u  483.1734m    2.9340u   458.6694m 
    1.28000   960.0429u  483.1732m    2.8886u   458.6696m 
    1.28100   961.9035u  483.1731m    2.8436u   458.6698m 
    1.28200   963.7649u  483.1729m    2.7992u   458.6701m 
    1.28300   965.6270u  483.1727m    2.7553u   458.6703m 
    1.28400   967.4899u  483.1726m    2.7119u   458.6705m 
    1.28500   969.3535u  483.1724m    2.6690u   458.6708m 
    1.28600   971.2179u  483.1723m    2.6266u   458.6710m 
    1.28700   973.0830u  483.1721m    2.5847u   458.6712m 
    1.28800   974.9489u  483.1719m    2.5433u   458.6714m 
    1.28900   976.8155u  483.1718m    2.5024u   458.6717m 
    1.29000   978.6828u  483.1716m    2.4620u   458.6719m 
    1.29100   980.5509u  483.1715m    2.4221u   458.6721m 
    1.29200   982.4197u  483.1713m    2.3827u   458.6723m 
    1.29300   984.2892u  483.1712m    2.3438u   458.6726m 
    1.29400   986.1594u  483.1710m    2.3053u   458.6728m 
    1.29500   988.0304u  483.1708m    2.2673u   458.6730m 
    1.29600   989.9021u  483.1707m    2.2298u   458.6733m 
    1.29700   991.7745u  483.1705m    2.1928u   458.6735m 
    1.29800   993.6476u  483.1704m    2.1563u   458.6737m 
    1.29900   995.5215u  483.1702m    2.1202u   458.6740m 
    1.30000   997.3960u  483.1700m    2.0846u   458.6742m 
    1.30100   999.2713u  483.1699m    2.0494u   458.6744m 
    1.30200     1.0011m  483.1697m    2.0147u   458.6746m 
    1.30300     1.0030m  483.1696m    1.9805u   458.6749m 
    1.30400     1.0049m  483.1694m    1.9467u   458.6751m 
    1.30500     1.0068m  483.1693m    1.9134u   458.6753m 
    1.30600     1.0087m  483.1691m    1.8805u   458.6756m 
    1.30700     1.0105m  483.1689m    1.8481u   458.6758m 
    1.30800     1.0124m  483.1688m    1.8160u   458.6760m 
    1.30900     1.0143m  483.1686m    1.7845u   458.6762m 
    1.31000     1.0162m  483.1685m    1.7534u   458.6765m 
    1.31100     1.0181m  483.1683m    1.7227u   458.6767m 
    1.31200     1.0199m  483.1682m    1.6924u   458.6769m 
    1.31300     1.0218m  483.1680m    1.6625u   458.6772m 
    1.31400     1.0237m  483.1678m    1.6331u   458.6774m 
    1.31500     1.0256m  483.1677m    1.6041u   458.6776m 
    1.31600     1.0275m  483.1675m    1.5755u   458.6778m 
    1.31700     1.0294m  483.1674m    1.5473u   458.6781m 
    1.31800     1.0313m  483.1672m    1.5195u   458.6783m 
    1.31900     1.0331m  483.1671m    1.4922u   458.6785m 
    1.32000     1.0350m  483.1669m    1.4652u   458.6788m 
    1.32100     1.0369m  483.1667m    1.4386u   458.6790m 
    1.32200     1.0388m  483.1666m    1.4124u   458.6792m 
    1.32300     1.0407m  483.1664m    1.3866u   458.6794m 
    1.32400     1.0426m  483.1663m    1.3612u   458.6797m 
    1.32500     1.0445m  483.1661m    1.3362u   458.6799m 
    1.32600     1.0464m  483.1660m    1.3116u   458.6801m 
    1.32700     1.0483m  483.1658m    1.2873u   458.6804m 
    1.32800     1.0502m  483.1656m    1.2634u   458.6806m 
[...]
    1.49100     1.3658m  483.1403m   30.2094n   458.7181m 
    1.49200     1.3678m  483.1402m   29.4111n   458.7183m 
    1.49300     1.3697m  483.1400m   28.6325n   458.7186m 
    1.49400     1.3717m  483.1398m   27.8732n   458.7188m 
    1.49500     1.3737m  483.1397m   27.1327n   458.7190m 
    1.49600     1.3757m  483.1395m   26.4107n   458.7193m 
    1.49700     1.3776m  483.1394m   25.7066n   458.7195m 
    1.49800     1.3796m  483.1392m   25.0201n   458.7197m 
    1.49900     1.3816m  483.1391m   24.3508n   458.7199m 
    1.50000     1.3835m  483.1389m   23.6983n   458.7202m 
    1.50100     1.3855m  483.1388m   23.0622n   458.7204m 
    1.50200     1.3875m  483.1386m   22.4421n   458.7206m 
    1.50300     1.3895m  483.1385m   21.8376n   458.7209m 
    1.50400     1.3914m  483.1383m   21.2485n   458.7211m 
    1.50500     1.3934m  483.1382m   20.6743n   458.7213m 
    1.50600     1.3954m  483.1380m   20.1146n   458.7216m 
    1.50700     1.3974m  483.1378m   19.5692n   458.7218m 
    1.50800     1.3993m  483.1377m   19.0378n   458.7220m 
    1.50900     1.4013m  483.1375m   18.5199n   458.7223m 
    1.51000     1.4033m  483.1374m   18.0152n   458.7225m 
    1.51100     1.4053m  483.1372m   17.5236n   458.7227m 
    1.51200     1.4072m  483.1371m   17.0445n   458.7229m 
    1.51300     1.4092m  483.1369m   16.5779n   458.7232m 
    1.51400     1.4112m  483.1368m   16.1233n   458.7234m 
    1.51500     1.4132m  483.1366m   15.6804n   458.7236m 
    1.51600     1.4152m  483.1365m   15.2490n   458.7239m 
    1.51700     1.4171m  483.1363m   14.8289n   458.7241m 
    1.51800     1.4191m  483.1362m   14.4197n   458.7243m 
    1.51900     1.4211m  483.1360m   14.0211n   458.7246m 
    1.52000     1.4231m  483.1358m   13.6330n   458.7248m 
    1.52100     1.4250m  483.1357m   13.2551n   458.7250m 
    1.52200     1.4270m  483.1355m   12.8871n   458.7252m 
    1.52300     1.4290m  483.1354m   12.5287n   458.7255m 
    1.52400     1.4310m  483.1352m   12.1798n   458.7257m 
    1.52500     1.4330m  483.1351m   11.8402n   458.7259m 
    1.52600     1.4349m  483.1349m   11.5095n   458.7262m 
    1.52700     1.4369m  483.1348m   11.1876n   458.7264m 
    1.52800     1.4389m  483.1346m   10.8742n   458.7266m 
    1.52900     1.4409m  483.1345m   10.5692n   458.7269m 
    1.53000     1.4429m  483.1343m   10.2723n   458.7271m 
    1.53100     1.4448m  483.1342m    9.9833n   458.7273m 
    1.53200     1.4468m  483.1340m    9.7021n   458.7276m 
    1.53300     1.4488m  483.1338m    9.4284n   458.7278m 
    1.53400     1.4508m  483.1337m    9.1621n   458.7280m 
    1.53500     1.4528m  483.1335m    8.9029n   458.7282m 
    1.53600     1.4547m  483.1334m    8.6508n   458.7285m 
    1.53700     1.4567m  483.1332m    8.4054n   458.7287m 
    1.53800     1.4587m  483.1331m    8.1667n   458.7289m 
    1.53900     1.4607m  483.1329m    7.9345n   458.7292m 
    1.54000     1.4627m  483.1328m    7.7085n   458.7294m 
    1.54100     1.4647m  483.1326m    7.4888n   458.7296m 
    1.54200     1.4666m  483.1325m    7.2750n   458.7299m 
    1.54300     1.4686m  483.1323m    7.0670n   458.7301m 
    1.54400     1.4706m  483.1322m    6.8648n   458.7303m 
    1.54500     1.4726m  483.1320m    6.6680n   458.7305m 
    1.54600     1.4746m  483.1318m    6.4767n   458.7308m 
    1.54700     1.4766m  483.1317m    6.2907n   458.7310m 
    1.54800     1.4785m  483.1315m    6.1097n   458.7312m 
    1.54900     1.4805m  483.1314m    5.9338n   458.7315m 
    1.55000     1.4825m  483.1312m    5.7627n   458.7317m 
    1.55100     1.4845m  483.1311m    5.5964n   458.7319m 
    1.55200     1.4865m  483.1309m    5.4347n   458.7322m 
    1.55300     1.4885m  483.1308m    5.2774n   458.7324m 
    1.55400     1.4905m  483.1306m    5.1246n   458.7326m 
    1.55500     1.4924m  483.1305m    4.9760n   458.7329m 
    1.55600     1.4944m  483.1303m    4.8315n   458.7331m 
    1.55700     1.4964m  483.1302m    4.6911n   458.7333m 
    1.55800     1.4984m  483.1300m    4.5546n   458.7335m 
    1.55900     1.5004m  483.1299m    4.4220n   458.7338m 
    1.56000     1.5024m  483.1297m    4.2930n   458.7340m 
    1.56100     1.5044m  483.1295m    4.1677n   458.7342m 
    1.56200     1.5064m  483.1294m    4.0460n   458.7345m 
    1.56300     1.5083m  483.1292m    3.9276n   458.7347m 
    1.56400     1.5103m  483.1291m    3.8126n   458.7349m 
    1.56500     1.5123m  483.1289m    3.7009n   458.7352m 
    1.56600     1.5143m  483.1288m    3.5923n   458.7354m 
    1.56700     1.5163m  483.1286m    3.4868n   458.7356m 
    1.56800     1.5183m  483.1285m    3.3843n   458.7358m 
    1.56900     1.5203m  483.1283m    3.2847n   458.7361m 
    1.57000     1.5223m  483.1282m    3.1880n   458.7363m 
    1.57100     1.5243m  483.1280m    3.0940n   458.7365m 
    1.57200     1.5262m  483.1279m    3.0027n   458.7368m 
    1.57300     1.5282m  483.1277m    2.9140n   458.7370m 
    1.57400     1.5302m  483.1276m    2.8278n   458.7372m 
    1.57500     1.5322m  483.1274m    2.7441n   458.7375m 
    1.57600     1.5342m  483.1272m    2.6628n   458.7377m 
    1.57700     1.5362m  483.1271m    2.5839n   458.7379m 
    1.57800     1.5382m  483.1269m    2.5072n   458.7382m 
    1.57900     1.5402m  483.1268m    2.4328n   458.7384m 
    1.58000     1.5422m  483.1266m    2.3605n   458.7386m 
    1.58100     1.5442m  483.1265m    2.2902n   458.7388m 
    1.58200     1.5461m  483.1263m    2.2221n   458.7391m 
    1.58300     1.5481m  483.1262m    2.1558n   458.7393m 
    1.58400     1.5501m  483.1260m    2.0915n   458.7395m 
    1.58500     1.5521m  483.1259m    2.0291n   458.7398m 
    1.58600     1.5541m  483.1257m    1.9685n   458.7400m 
    1.58700     1.5561m  483.1256m    1.9096n   458.7402m 
    1.58800     1.5581m  483.1254m    1.8525n   458.7405m 
    1.58900     1.5601m  483.1253m    1.7970n   458.7407m 
    1.59000     1.5621m  483.1251m    1.7432n   458.7409m 
    1.59100     1.5641m  483.1249m    1.6909n   458.7411m 
    1.59200     1.5661m  483.1248m    1.6402n   458.7414m 
    1.59300     1.5681m  483.1246m    1.5909n   458.7416m 
    1.59400     1.5701m  483.1245m    1.5431n   458.7418m 
    1.59500     1.5720m  483.1243m    1.4967n   458.7421m 
    1.59600     1.5740m  483.1242m    1.4516n   458.7423m 
    1.59700     1.5760m  483.1240m    1.4079n   458.7425m 
    1.59800     1.5780m  483.1239m    1.3655n   458.7428m 
    1.59900     1.5800m  483.1237m    1.3243n   458.7430m 
    1.60000     1.5820m  483.1236m    1.2843n   458.7432m 
    1.60100     1.5840m  483.1234m    1.2455n   458.7435m 
    1.60200     1.5860m  483.1233m    1.2079n   458.7437m 
    1.60300     1.5880m  483.1231m    1.1714n   458.7439m 
    1.60400     1.5900m  483.1230m    1.1359n   458.7441m 
    1.60500     1.5920m  483.1228m    1.1015n   458.7444m 
    1.60600     1.5940m  483.1226m    1.0681n   458.7446m 
    1.60700     1.5960m  483.1225m    1.0357n   458.7448m 
    1.60800     1.5980m  483.1223m    1.0043n   458.7451m 
    1.60900     1.6000m  483.1222m  973.8351p   458.7453m 
    1.61000     1.6020m  483.1220m  944.2537p   458.7455m 
    1.61100     1.6040m  483.1219m  915.5537p   458.7458m 
    1.61200     1.6060m  483.1217m  887.7095p   458.7460m 
    1.61300     1.6079m  483.1216m  860.6963p   458.7462m 
    1.61400     1.6099m  483.1214m  834.4900p   458.7465m 
    1.61500     1.6119m  483.1213m  809.0671p   458.7467m 
    1.61600     1.6139m  483.1211m  784.4048p   458.7469m 
    1.61700     1.6159m  483.1210m  760.4808p   458.7471m 
    1.61800     1.6179m  483.1208m  737.2738p   458.7474m 
    1.61900     1.6199m  483.1207m  714.7626p   458.7476m 
    1.62000     1.6219m  483.1205m  692.9270p   458.7478m 
    1.62100     1.6239m  483.1204m  671.7471p   458.7481m 
    1.62200     1.6259m  483.1202m  651.2038p   458.7483m 
    1.62300     1.6279m  483.1200m  631.2784p   458.7485m 
    1.62400     1.6299m  483.1199m  611.9526p   458.7488m 
    1.62500     1.6319m  483.1197m  593.2090p   458.7490m 
    1.62600     1.6339m  483.1196m  575.0302p   458.7492m 
    1.62700     1.6359m  483.1194m  557.3998p   458.7494m 
    1.62800     1.6379m  483.1193m  540.3014p   458.7497m 
    1.62900     1.6399m  483.1191m  523.7194p   458.7499m 
    1.63000     1.6419m  483.1190m  507.6386p   458.7501m 
    1.63100     1.6439m  483.1188m  492.0441p   458.7504m 
    1.63200     1.6459m  483.1187m  476.9214p   458.7506m 
    1.63300     1.6479m  483.1185m  462.2567p   458.7508m 
    1.63400     1.6499m  483.1184m  448.0362p   458.7511m 
    1.63500     1.6519m  483.1182m  434.2469p   458.7513m 
    1.63600     1.6539m  483.1181m  420.8760p   458.7515m 
    1.63700     1.6559m  483.1179m  407.9108p   458.7518m 
    1.63800     1.6579m  483.1178m  395.3395p   458.7520m 
    1.63900     1.6599m  483.1176m  383.1501p   458.7522m 
    1.64000     1.6619m  483.1174m  371.3315p   458.7524m 
    1.64100     1.6639m  483.1173m  359.8723p   458.7527m 
    1.64200     1.6659m  483.1171m  348.7621p   458.7529m 
    1.64300     1.6679m  483.1170m  337.9902p   458.7531m 
    1.64400     1.6699m  483.1168m  327.5466p   458.7534m 
    1.64500     1.6719m  483.1167m  317.4214p   458.7536m 
    1.64600     1.6739m  483.1165m  307.6051p   458.7538m 
    1.64700     1.6758m  483.1164m  298.0884p   458.7541m 
    1.64800     1.6778m  483.1162m  288.8624p   458.7543m 
    1.64900     1.6798m  483.1161m  279.9182p   458.7545m 
    1.65000     1.6818m  483.1159m  271.2475p   458.7547m 
    1.65100     1.6838m  483.1158m  262.8419p   458.7550m 
    1.65200     1.6858m  483.1156m  254.6936p   458.7552m 
    1.65300     1.6878m  483.1155m  246.7947p   458.7554m 
    1.65400     1.6898m  483.1153m  239.1377p   458.7557m 
    1.65500     1.6918m  483.1151m  231.7153p   458.7559m 
    1.65600     1.6938m  483.1150m  224.5205p   458.7561m 
    1.65700     1.6958m  483.1148m  217.5463p   458.7564m 
    1.65800     1.6978m  483.1147m  210.7862p   458.7566m 
    1.65900     1.6998m  483.1145m  204.2335p   458.7568m 
    1.66000     1.7018m  483.1144m  197.8821p   458.7571m 
    1.66100     1.7038m  483.1142m  191.7257p   458.7573m 
    1.66200     1.7058m  483.1141m  185.7587p   458.7575m 
    1.66300     1.7078m  483.1139m  179.9750p   458.7577m 
    1.66400     1.7098m  483.1138m  174.3693p   458.7580m 
    1.66500     1.7118m  483.1136m  168.9361p   458.7582m 
    1.66600     1.7138m  483.1135m  163.6701p   458.7584m 
    1.66700     1.7158m  483.1133m  158.5663p   458.7587m 
    1.66800     1.7178m  483.1132m  153.6197p   458.7589m 
    1.66900     1.7198m  483.1130m  148.8256p   458.7591m 
    1.67000     1.7218m  483.1129m  144.1793p   458.7594m 
    1.67100     1.7238m  483.1127m  139.6762p   458.7596m 
    1.67200     1.7258m  483.1125m  135.3121p   458.7598m 
    1.67300     1.7278m  483.1124m  131.0826p   458.7600m 
    1.67400     1.7298m  483.1122m  126.9837p   458.7603m 
    1.67500     1.7318m  483.1121m  123.0114p   458.7605m 
    1.67600     1.7338m  483.1119m  119.1618p   458.7607m 
    1.67700     1.7358m  483.1118m  115.4311p   458.7610m 
    1.67800     1.7378m  483.1116m  111.8158p   458.7612m 
    1.67900     1.7398m  483.1115m  108.3122p   458.7614m 
    1.68000     1.7418m  483.1113m  104.9170p   458.7617m 
    1.68100     1.7438m  483.1112m  101.6268p   458.7619m 
    1.68200     1.7458m  483.1110m   98.4384p   458.7621m 
    1.68300     1.7478m  483.1109m   95.3487p   458.7624m 
    1.68400     1.7498m  483.1107m   92.3546p   458.7626m 
    1.68500     1.7518m  483.1106m   89.4533p   458.7628m 
    1.68600     1.7538m  483.1104m   86.6418p   458.7630m 
    1.68700     1.7558m  483.1103m   83.9174p   458.7633m 
    1.68800     1.7578m  483.1101m   81.2775p   458.7635m 
    1.68900     1.7598m  483.1099m   78.7193p   458.7637m 
    1.69000     1.7618m  483.1098m   76.2405p   458.7640m 
    1.69100     1.7638m  483.1096m   73.8385p   458.7642m 
    1.69200     1.7658m  483.1095m   71.5110p   458.7644m 
    1.69300     1.7678m  483.1093m   69.2557p   458.7647m 
    1.69400     1.7698m  483.1092m   67.0703p   458.7649m 
    1.69500     1.7718m  483.1090m   64.9527p   458.7651m 
    1.69600     1.7738m  483.1089m   62.9009p   458.7653m 
    1.69700     1.7758m  483.1087m   60.9127p   458.7656m 
    1.69800     1.7778m  483.1086m   58.9862p   458.7658m 
    1.69900     1.7798m  483.1084m   57.1195p   458.7660m 
    1.70000     1.7818m  483.1083m   55.3107p   458.7663m 
    1.70100     1.7838m  483.1081m   53.5580p   458.7665m 
    1.70200     1.7858m  483.1080m   51.8598p   458.7667m 
    1.70300     1.7878m  483.1078m   50.2143p   458.7670m 
    1.70400     1.7898m  483.1077m   48.6198p   458.7672m 
    1.70500     1.7918m  483.1075m   47.0748p   458.7674m 
    1.70600     1.7938m  483.1073m   45.5778p   458.7677m 
    1.70700     1.7958m  483.1072m   44.1272p   458.7679m 
    1.70800     1.7978m  483.1070m   42.7217p   458.7681m 
    1.70900     1.7998m  483.1069m   41.3597p   458.7683m 
    1.71000     1.8018m  483.1067m   40.0400p   458.7686m 
    1.71100     1.8038m  483.1066m   38.7612p   458.7688m 
    1.71200     1.8058m  483.1064m   37.5220p   458.7690m 
    1.71300     1.8078m  483.1063m   36.3213p   458.7693m 
    1.71400     1.8098m  483.1061m   35.1578p   458.7695m 
    1.71500     1.8118m  483.1060m   34.0303p   458.7697m 
    1.71600     1.8138m  483.1058m   32.9377p   458.7700m 
    1.71700     1.8158m  483.1057m   31.8789p   458.7702m 
    1.71800     1.8178m  483.1055m   30.8529p   458.7704m 
    1.71900     1.8198m  483.1054m   29.8586p   458.7706m 
    1.72000     1.8218m  483.1052m   28.8950p   458.7709m 
    1.72100     1.8238m  483.1051m   27.9612p   458.7711m 
    1.72200     1.8258m  483.1049m   27.0562p   458.7713m 
    1.72300     1.8278m  483.1047m   26.1790p   458.7716m 
    1.72400     1.8298m  483.1046m   25.3289p   458.7718m 
    1.72500     1.8318m  483.1044m   24.5050p   458.7720m 
    1.72600     1.8338m  483.1043m   23.7064p   458.7723m 
    1.72700     1.8358m  483.1041m   22.9323p   458.7725m 
    1.72800     1.8378m  483.1040m   22.1819p   458.7727m 
    1.72900     1.8398m  483.1038m   21.4545p   458.7730m 
    1.73000     1.8418m  483.1037m   20.7494p   458.7732m 
    1.73100     1.8438m  483.1035m   20.0658p   458.7734m 
    1.73200     1.8458m  483.1034m   19.4030p   458.7736m 
    1.73300     1.8478m  483.1032m   18.7604p   458.7739m 
    1.73400     1.8498m  483.1031m   18.1374p   458.7741m 
    1.73500     1.8518m  483.1029m   17.5332p   458.7743m 
    1.73600     1.8538m  483.1028m   16.9472p   458.7746m 
    1.73700     1.8558m  483.1026m   16.3789p   458.7748m 
    1.73800     1.8578m  483.1025m   15.8278p   458.7750m 
    1.73900     1.8598m  483.1023m   15.2931p   458.7753m 
    1.74000     1.8618m  483.1021m   14.7745p   458.7755m 
    1.74100     1.8638m  483.1020m   14.2713p   458.7757m 
    1.74200     1.8658m  483.1018m   13.7830p   458.7760m 
    1.74300     1.8678m  483.1017m   13.3092p   458.7762m 
    1.74400     1.8698m  483.1015m   12.8494p   458.7764m 
    1.74500     1.8718m  483.1014m   12.4031p   458.7766m 
    1.74600     1.8738m  483.1012m   11.9698p   458.7769m 
    1.74700     1.8758m  483.1011m   11.5492p   458.7771m 
    1.74800     1.8778m  483.1009m   11.1407p   458.7773m 
    1.74900     1.8798m  483.1008m   10.7440p   458.7776m 
    1.75000     1.8818m  483.1006m   10.3587p   458.7778m 
    1.75100     1.8838m  483.1005m    9.9843p   458.7780m 
    1.75200     1.8858m  483.1003m    9.6206p   458.7783m 
    1.75300     1.8878m  483.1002m    9.2671p   458.7785m 
    1.75400     1.8898m  483.1000m    8.9236p   458.7787m 
    1.75500     1.8918m  483.0999m    8.5895p   458.7789m 
    1.75600     1.8938m  483.0997m    8.2648p   458.7792m 
    1.75700     1.8958m  483.0995m    7.9489p   458.7794m 
    1.75800     1.8978m  483.0994m    7.6416p   458.7796m 
    1.75900     1.8998m  483.0992m    7.3427p   458.7799m 
    1.76000     1.9018m  483.0991m    7.0519p   458.7801m 
    1.76100     1.9038m  483.0989m    6.7688p   458.7803m 
    1.76200     1.9058m  483.0988m    6.4932p   458.7806m 
    1.76300     1.9078m  483.0986m    6.2249p   458.7808m 
    1.76400     1.9098m  483.0985m    5.9636p   458.7810m 
    1.76500     1.9118m  483.0983m    5.7092p   458.7813m 
    1.76600     1.9138m  483.0982m    5.4613p   458.7815m 
    1.76700     1.9158m  483.0980m    5.2199p   458.7817m 
    1.76800     1.9178m  483.0979m    4.9846p   458.7819m 
    1.76900     1.9198m  483.0977m    4.7554p   458.7822m 
    1.77000     1.9218m  483.0976m    4.5321p   458.7824m 
    1.77100     1.9238m  483.0974m    4.3144p   458.7826m 
    1.77200     1.9258m  483.0973m    4.1022p   458.7829m 
    1.77300     1.9278m  483.0971m    3.8955p   458.7831m 
    1.77400     1.9298m  483.0969m    3.6940p   458.7833m 
    1.77500     1.9318m  483.0968m    3.4976p   458.7836m 
    1.77600     1.9338m  483.0966m    3.3062p   458.7838m 
    1.77700     1.9358m  483.0965m    3.1197p   458.7840m 
    1.77800     1.9378m  483.0963m    2.9381p   458.7842m 
    1.77900     1.9398m  483.0962m    2.7611p   458.7845m 
    1.78000     1.9418m  483.0960m    2.5887p   458.7847m 
    1.78100     1.9438m  483.0959m    2.4208p   458.7849m 
    1.78200     1.9458m  483.0957m    2.2574p   458.7852m 
    1.78300     1.9478m  483.0956m    2.0983p   458.7854m 
    1.78400     1.9498m  483.0954m    1.9435p   458.7856m 
    1.78500     1.9517m  483.0953m    1.7929p   458.7859m 
    1.78600     1.9537m  483.0951m    1.6465p   458.7861m 
    1.78700     1.9557m  483.0950m    1.5041p   458.7863m 
    1.78800     1.9577m  483.0948m    1.3658p   458.7866m 
    1.78900     1.9597m  483.0946m    1.2315p   458.7868m 
    1.79000     1.9617m  483.0945m    1.1010p   458.7870m 
    1.79100     1.9637m  483.0943m  974.4533f   458.7872m 
    1.79200     1.9657m  483.0942m  851.6748f   458.7875m 
    1.79300     1.9677m  483.0940m  732.6453f   458.7877m 
    1.79400     1.9697m  483.0939m  617.3119f   458.7879m 
    1.79500     1.9717m  483.0937m  505.6222f   458.7882m 
    1.79600     1.9737m  483.0936m  397.5240f   458.7884m 
    1.79700     1.9757m  483.0934m  292.9652f   458.7886m 
    1.79800     1.9777m  483.0933m  191.8933f   458.7889m 
    1.79900     1.9797m  483.0931m   94.2559f   458.7891m 
    1.80000     1.9817m  483.0930m  4.1115e-26  458.7893m 
y

          ***** job concluded
1****** HSPICE -- O-2018.09-SP2 win64 (Feb 25 2019) ******                      
 ******  
 

 ****** job statistics summary tnom=  25.000 temp=  25.000 ******

  ******  HSPICE Threads Information  ******

  Command Line Threads Count :     1
  Available CPU Count        :     8
  Actual Threads Count       :     1


  ******  Circuit Statistics  ******
  # nodes       =       7 # elements   =       4
  # resistors   =       0 # capacitors =       0 # inductors   =       0
  # mutual_inds =       0 # vccs       =       0 # vcvs        =       0
  # cccs        =       0 # ccvs       =       0 # volt_srcs   =       2
  # curr_srcs   =       0 # diodes     =       0 # bjts        =       0
  # jfets       =       0 # mosfets    =       2 # U elements  =       0
  # T elements  =       0 # W elements =       0 # B elements  =       0
  # S elements  =       0 # P elements =       0 # va device   =       0
  # vector_srcs =       0 # N elements =       0


  ******  Runtime Statistics (seconds)  ******

  analysis           time    # points   tot. iter  conv.iter
  op point           0.00           1           0
  dc sweep           0.15        1801        3604
  readin             0.06
  errchk             0.01
  setup              0.00
  output             0.00


           peak memory used         64.31 megabytes
           total cpu time            0.25 seconds
           total elapsed time        0.28 seconds
           job started at     23:05:57 12/05/2021
           job ended   at     23:05:57 12/05/2021


  lic: Release hspice token(s) 
 lic: total license checkout elapse time:        0.03(s)
