 ****** HSPICE -- O-2018.09-SP2 win64 (Feb 25 2019) ******                      
  Copyright (c) 1986 - 2021 by Synopsys, Inc. All Rights Reserved.              
  This software and the associated documentation are proprietary
  to Synopsys, Inc. This software may only be used in accordance
  with the terms and conditions of a written license agreement with
  Synopsys, Inc. All other use, reproduction, or distribution of
  this software is strictly prohibited.
  Input File: cmosinv.sp                                                        
  Command line options: C:\synopsys\Hspice_O-2018.09-SP2\WIN64\hspice.com -i cmosinv.sp -o C:\sdsy\task2\case1\cmosinv.lis
  Start time: Fri Nov 12 15:18:46 2021
  lic:  
  lic: FLEXlm: SDK_11.7.3 
  lic: USER:   admin                HOSTNAME: DESKTOP-3KO7170 
  lic: HOSTID: "d83bbfb49802"       PID:      20896 
  lic: Using FLEXlm license file: 
  lic: 27000@DESKTOP-3KO7170 
  lic: Checkout 1 hspice 
  lic: License/Maintenance for hspice will expire on 30-dec-2029/2019.2019 
  lic: 1(in_use)/99(total) FLOATING license(s) on SERVER 27000@DESKTOP-3KO7170 
  lic:   
  **info** (cmosinv.sp:13) DC voltage reset to initial transient source value in source 0:vin. new dc=0.0000D+00
  
      

Element variations(Local):   element              parameter
 **info** set option symb=1 internally to help for convergence.
 *****************************************************************
 ******  option summary
 ******
 runlvl  = 3         bypass  = 2.0000    
 **info** dc convergence successful at Newton-Raphson method 
1****** HSPICE -- O-2018.09-SP2 win64 (Feb 25 2019) ******                      
 ******  
 

 ****** operating point information tnom=  25.000 temp=  25.000 ******
 ****** operating point status is voltage   simulation time is     0.     
    node    =voltage      node    =voltage      node    =voltage

 +0:vdd     =   1.0000  0:vin     =   0.      0:vout    = 999.9848m

 ******
 

 ****** transient analysis tnom=  25.000 temp=  25.000 ******
x

 time         voltage    voltage   
             vin        vout       
    0.          0.       999.9848m 
    1.00000p    0.       999.9848m 
    2.00000p    0.       999.9848m 
    3.00000p    0.       999.9848m 
    4.00000p    0.       999.9848m 
    5.00000p    0.       999.9848m 
    6.00000p    0.       999.9848m 
    7.00000p    0.       999.9848m 
    8.00000p    0.       999.9848m 
    9.00000p    0.       999.9848m 
   10.00000p    0.       999.9848m 
   11.00000p    0.       999.9848m 
   12.00000p    0.       999.9848m 
   13.00000p    0.       999.9848m 
   14.00000p    0.       999.9848m 
   15.00000p    0.       999.9848m 
   16.00000p    0.       999.9848m 
   17.00000p    0.       999.9848m 
   18.00000p    0.       999.9848m 
   19.00000p    0.       999.9848m 
   20.00000p    0.       999.9848m 
   21.00000p    0.       999.9848m 
   22.00000p    0.       999.9848m 
   23.00000p    0.       999.9848m 
   24.00000p    0.       999.9848m 
   25.00000p    0.       999.9848m 
   26.00000p    0.       999.9848m 
   27.00000p    0.       999.9848m 
   28.00000p    0.       999.9848m 
   29.00000p    0.       999.9848m 
   30.00000p    0.       999.9848m 
   31.00000p    0.       999.9848m 
   32.00000p    0.       999.9848m 
   33.00000p    0.       999.9848m 
   34.00000p    0.       999.9848m 
   35.00000p    0.       999.9848m 
   36.00000p    0.       999.9848m 
   37.00000p    0.       999.9848m 
   38.00000p    0.       999.9848m 
   39.00000p    0.       999.9848m 
   40.00000p    0.       999.9848m 
   41.00000p    0.       999.9848m 
   42.00000p    0.       999.9848m 
   43.00000p    0.       999.9848m 
   44.00000p    0.       999.9848m 
   45.00000p    0.       999.9848m 
   46.00000p    0.       999.9848m 
   47.00000p    0.       999.9848m 
   48.00000p    0.       999.9848m 
   49.00000p    0.       999.9848m 
   50.00000p    0.       999.9848m 
   51.00000p    0.       999.9848m 
   52.00000p    0.       999.9848m 
   53.00000p    0.       999.9848m 
   54.00000p    0.       999.9848m 
   55.00000p    0.       999.9848m 
   56.00000p    0.       999.9848m 
   57.00000p    0.       999.9848m 
   58.00000p    0.       999.9848m 
   59.00000p    0.       999.9848m 
   60.00000p    0.       999.9848m 
   61.00000p    0.       999.9848m 
   62.00000p    0.       999.9848m 
   63.00000p    0.       999.9848m 
   64.00000p    0.       999.9848m 
   65.00000p    0.       999.9848m 
   66.00000p    0.       999.9848m 
   67.00000p    0.       999.9848m 
   68.00000p    0.       999.9848m 
   69.00000p    0.       999.9848m 
   70.00000p    0.       999.9848m 
   71.00000p    0.       999.9848m 
   72.00000p    0.       999.9848m 
   73.00000p    0.       999.9848m 
   74.00000p    0.       999.9848m 
   75.00000p    0.       999.9848m 
   76.00000p    0.       999.9848m 
   77.00000p    0.       999.9848m 
   78.00000p    0.       999.9848m 
   79.00000p    0.       999.9848m 
   80.00000p    0.       999.9848m 
   81.00000p    0.       999.9848m 
   82.00000p    0.       999.9848m 
   83.00000p    0.       999.9848m 
   84.00000p    0.       999.9848m 
   85.00000p    0.       999.9848m 
   86.00000p    0.       999.9848m 
   87.00000p    0.       999.9848m 
   88.00000p    0.       999.9848m 
   89.00000p    0.       999.9848m 
   90.00000p    0.       999.9848m 
   91.00000p    0.       999.9848m 
   92.00000p    0.       999.9848m 
   93.00000p    0.       999.9848m 
   94.00000p    0.       999.9848m 
   95.00000p    0.       999.9848m 
   96.00000p    0.       999.9848m 
   97.00000p    0.       999.9848m 
   98.00000p    0.       999.9848m 
   99.00000p    0.       999.9848m 
  100.00000p    0.       999.9848m 
  101.00000p    0.       999.9848m 
  102.00000p    0.       999.9848m 
  103.00000p    0.       999.9848m 
  104.00000p    0.       999.9848m 
  105.00000p    0.       999.9848m 
  106.00000p    0.       999.9848m 
  107.00000p    0.       999.9848m 
  108.00000p    0.       999.9848m 
  109.00000p    0.       999.9848m 
  110.00000p    0.       999.9848m 
  111.00000p    0.       999.9848m 
  112.00000p    0.       999.9848m 
  113.00000p    0.       999.9848m 
  114.00000p    0.       999.9848m 
  115.00000p    0.       999.9848m 
  116.00000p    0.       999.9848m 
  117.00000p    0.       999.9848m 
  118.00000p    0.       999.9848m 
  119.00000p    0.       999.9848m 
  120.00000p    0.       999.9848m 
  121.00000p    0.       999.9848m 
  122.00000p    0.       999.9848m 
  123.00000p    0.       999.9848m 
  124.00000p    0.       999.9848m 
  125.00000p    0.       999.9848m 
  126.00000p    0.       999.9848m 
  127.00000p    0.       999.9848m 
  128.00000p    0.       999.9848m 
  129.00000p    0.       999.9848m 
  130.00000p    0.       999.9848m 
  131.00000p    0.       999.9848m 
  132.00000p    0.       999.9848m 
  133.00000p    0.       999.9848m 
  134.00000p    0.       999.9848m 
  135.00000p    0.       999.9848m 
  136.00000p    0.       999.9848m 
  137.00000p    0.       999.9848m 
  138.00000p    0.       999.9848m 
  139.00000p    0.       999.9848m 
  140.00000p    0.       999.9848m 
  141.00000p    0.       999.9848m 
  142.00000p    0.       999.9848m 
  143.00000p    0.       999.9848m 
  144.00000p    0.       999.9848m 
  145.00000p    0.       999.9848m 
  146.00000p    0.       999.9848m 
  147.00000p    0.       999.9848m 
  148.00000p    0.       999.9848m 
  149.00000p    0.       999.9848m 
  150.00000p    0.       999.9848m 
  151.00000p    0.       999.9848m 
  152.00000p    0.       999.9848m 
  153.00000p    0.       999.9848m 
  154.00000p    0.       999.9848m 
  155.00000p    0.       999.9848m 
  156.00000p    0.       999.9848m 
  157.00000p    0.       999.9848m 
  158.00000p    0.       999.9848m 
  159.00000p    0.       999.9848m 
  160.00000p    0.       999.9848m 
  161.00000p    0.       999.9848m 
  162.00000p    0.       999.9848m 
  163.00000p    0.       999.9848m 
  164.00000p    0.       999.9848m 
  165.00000p    0.       999.9848m 
  166.00000p    0.       999.9848m 
  167.00000p    0.       999.9848m 
  168.00000p    0.       999.9848m 
  169.00000p    0.       999.9848m 
  170.00000p    0.       999.9848m 
  171.00000p    0.       999.9848m 
  172.00000p    0.       999.9848m 
  173.00000p    0.       999.9848m 
  174.00000p    0.       999.9848m 
  175.00000p    0.       999.9848m 
  176.00000p    0.       999.9848m 
  177.00000p    0.       999.9848m 
  178.00000p    0.       999.9848m 
  179.00000p    0.       999.9848m 
  180.00000p    0.       999.9848m 
  181.00000p    0.       999.9848m 
  182.00000p    0.       999.9848m 
  183.00000p    0.       999.9848m 
  184.00000p    0.       999.9848m 
  185.00000p    0.       999.9848m 
  186.00000p    0.       999.9848m 
  187.00000p    0.       999.9848m 
  188.00000p    0.       999.9848m 
  189.00000p    0.       999.9848m 
  190.00000p    0.       999.9848m 
  191.00000p    0.       999.9848m 
  192.00000p    0.       999.9848m 
  193.00000p    0.       999.9848m 
  194.00000p    0.       999.9848m 
  195.00000p    0.       999.9848m 
  196.00000p    0.       999.9848m 
  197.00000p    0.       999.9848m 
  198.00000p    0.       999.9848m 
  199.00000p    0.       999.9848m 
  200.00000p    0.       999.9848m 
  201.00000p    0.       999.9848m 
  202.00000p    0.       999.9848m 
  203.00000p    0.       999.9848m 
  204.00000p    0.       999.9848m 
  205.00000p    0.       999.9848m 
  206.00000p    0.       999.9848m 
  207.00000p    0.       999.9848m 
  208.00000p    0.       999.9848m 
  209.00000p    0.       999.9848m 
  210.00000p    0.       999.9848m 
  211.00000p    0.       999.9848m 
  212.00000p    0.       999.9848m 
  213.00000p    0.       999.9848m 
  214.00000p    0.       999.9848m 
  215.00000p    0.       999.9848m 
  216.00000p    0.       999.9848m 
  217.00000p    0.       999.9848m 
  218.00000p    0.       999.9848m 
  219.00000p    0.       999.9848m 
  220.00000p    0.       999.9848m 
  221.00000p    0.       999.9848m 
  222.00000p    0.       999.9848m 
  223.00000p    0.       999.9848m 
  224.00000p    0.       999.9848m 
  225.00000p    0.       999.9848m 
  226.00000p    0.       999.9848m 
  227.00000p    0.       999.9848m 
  228.00000p    0.       999.9848m 
  229.00000p    0.       999.9848m 
  230.00000p    0.       999.9848m 
  231.00000p    0.       999.9848m 
  232.00000p    0.       999.9848m 
  233.00000p    0.       999.9848m 
  234.00000p    0.       999.9848m 
  235.00000p    0.       999.9848m 
  236.00000p    0.       999.9848m 
  237.00000p    0.       999.9848m 
  238.00000p    0.       999.9848m 
  239.00000p    0.       999.9848m 
  240.00000p    0.       999.9848m 
  241.00000p    0.       999.9848m 
  242.00000p    0.       999.9848m 
  243.00000p    0.       999.9848m 
  244.00000p    0.       999.9848m 
  245.00000p    0.       999.9848m 
  246.00000p    0.       999.9848m 
  247.00000p    0.       999.9848m 
  248.00000p    0.       999.9848m 
  249.00000p    0.       999.9848m 
  250.00000p    0.       999.9848m 
  251.00000p    0.       999.9848m 
  252.00000p    0.       999.9848m 
  253.00000p    0.       999.9848m 
  254.00000p    0.       999.9848m 
  255.00000p    0.       999.9848m 
  256.00000p    0.       999.9848m 
  257.00000p    0.       999.9848m 
  258.00000p    0.       999.9848m 
  259.00000p    0.       999.9848m 
  260.00000p    0.       999.9848m 
  261.00000p    0.       999.9848m 
  262.00000p    0.       999.9848m 
  263.00000p    0.       999.9848m 
  264.00000p    0.       999.9848m 
  265.00000p    0.       999.9848m 
  266.00000p    0.       999.9848m 
  267.00000p    0.       999.9848m 
  268.00000p    0.       999.9848m 
  269.00000p    0.       999.9848m 
  270.00000p    0.       999.9848m 
  271.00000p    0.       999.9848m 
  272.00000p    0.       999.9848m 
  273.00000p    0.       999.9848m 
  274.00000p    0.       999.9848m 
  275.00000p    0.       999.9848m 
  276.00000p    0.       999.9848m 
  277.00000p    0.       999.9848m 
  278.00000p    0.       999.9848m 
  279.00000p    0.       999.9848m 
  280.00000p    0.       999.9848m 
  281.00000p    0.       999.9848m 
  282.00000p    0.       999.9848m 
  283.00000p    0.       999.9848m 
  284.00000p    0.       999.9848m 
  285.00000p    0.       999.9848m 
  286.00000p    0.       999.9848m 
  287.00000p    0.       999.9848m 
  288.00000p    0.       999.9848m 
  289.00000p    0.       999.9848m 
  290.00000p    0.       999.9848m 
  291.00000p    0.       999.9848m 
  292.00000p    0.       999.9848m 
  293.00000p    0.       999.9848m 
  294.00000p    0.       999.9848m 
  295.00000p    0.       999.9848m 
  296.00000p    0.       999.9848m 
  297.00000p    0.       999.9848m 
  298.00000p    0.       999.9848m 
  299.00000p    0.       999.9848m 
  300.00000p    0.       999.9848m 
  301.00000p    0.       999.9848m 
  302.00000p    0.       999.9848m 
  303.00000p    0.       999.9848m 
  304.00000p    0.       999.9848m 
  305.00000p    0.       999.9848m 
  306.00000p    0.       999.9848m 
  307.00000p    0.       999.9848m 
  308.00000p    0.       999.9848m 
  309.00000p    0.       999.9848m 
  310.00000p    0.       999.9848m 
  311.00000p    0.       999.9848m 
  312.00000p    0.       999.9848m 
  313.00000p    0.       999.9848m 
  314.00000p    0.       999.9848m 
  315.00000p    0.       999.9848m 
  316.00000p    0.       999.9848m 
  317.00000p    0.       999.9848m 
  318.00000p    0.       999.9848m 
  319.00000p    0.       999.9848m 
  320.00000p    0.       999.9848m 
  321.00000p    0.       999.9848m 
  322.00000p    0.       999.9848m 
  323.00000p    0.       999.9848m 
  324.00000p    0.       999.9848m 
  325.00000p    0.       999.9848m 
  326.00000p    0.       999.9848m 
  327.00000p    0.       999.9848m 
  328.00000p    0.       999.9848m 
  329.00000p    0.       999.9848m 
  330.00000p    0.       999.9848m 
  331.00000p    0.       999.9848m 
  332.00000p    0.       999.9848m 
  333.00000p    0.       999.9848m 
  334.00000p    0.       999.9848m 
  335.00000p    0.       999.9848m 
  336.00000p    0.       999.9848m 
  337.00000p    0.       999.9848m 
  338.00000p    0.       999.9848m 
  339.00000p    0.       999.9848m 
  340.00000p    0.       999.9848m 
  341.00000p    0.       999.9848m 
  342.00000p    0.       999.9848m 
  343.00000p    0.       999.9848m 
  344.00000p    0.       999.9848m 
  345.00000p    0.       999.9848m 
  346.00000p    0.       999.9848m 
  347.00000p    0.       999.9848m 
  348.00000p    0.       999.9848m 
  349.00000p    0.       999.9848m 
  350.00000p    0.       999.9848m 
  351.00000p    0.       999.9848m 
  352.00000p    0.       999.9848m 
  353.00000p    0.       999.9848m 
  354.00000p    0.       999.9848m 
  355.00000p    0.       999.9848m 
  356.00000p    0.       999.9848m 
  357.00000p    0.       999.9848m 
  358.00000p    0.       999.9848m 
  359.00000p    0.       999.9848m 
  360.00000p    0.       999.9848m 
  361.00000p    0.       999.9848m 
  362.00000p    0.       999.9848m 
  363.00000p    0.       999.9848m 
  364.00000p    0.       999.9848m 
  365.00000p    0.       999.9848m 
  366.00000p    0.       999.9848m 
  367.00000p    0.       999.9848m 
  368.00000p    0.       999.9848m 
  369.00000p    0.       999.9848m 
  370.00000p    0.       999.9848m 
  371.00000p    0.       999.9848m 
  372.00000p    0.       999.9848m 
  373.00000p    0.       999.9848m 
  374.00000p    0.       999.9848m 
  375.00000p    0.       999.9848m 
  376.00000p    0.       999.9848m 
  377.00000p    0.       999.9848m 
  378.00000p    0.       999.9848m 
  379.00000p    0.       999.9848m 
  380.00000p    0.       999.9848m 
  381.00000p    0.       999.9848m 
  382.00000p    0.       999.9848m 
  383.00000p    0.       999.9848m 
  384.00000p    0.       999.9848m 
  385.00000p    0.       999.9848m 
  386.00000p    0.       999.9848m 
  387.00000p    0.       999.9848m 
  388.00000p    0.       999.9848m 
  389.00000p    0.       999.9848m 
  390.00000p    0.       999.9848m 
  391.00000p    0.       999.9848m 
  392.00000p    0.       999.9848m 
  393.00000p    0.       999.9848m 
  394.00000p    0.       999.9848m 
  395.00000p    0.       999.9848m 
  396.00000p    0.       999.9848m 
  397.00000p    0.       999.9848m 
  398.00000p    0.       999.9848m 
  399.00000p    0.       999.9848m 
  400.00000p    0.       999.9848m 
  401.00000p    0.       999.9848m 
  402.00000p    0.       999.9848m 
  403.00000p    0.       999.9848m 
  404.00000p    0.       999.9848m 
  405.00000p    0.       999.9848m 
  406.00000p    0.       999.9848m 
  407.00000p    0.       999.9848m 
  408.00000p    0.       999.9848m 
  409.00000p    0.       999.9848m 
  410.00000p    0.       999.9848m 
  411.00000p    0.       999.9848m 
  412.00000p    0.       999.9848m 
  413.00000p    0.       999.9848m 
  414.00000p    0.       999.9848m 
  415.00000p    0.       999.9848m 
  416.00000p    0.       999.9848m 
  417.00000p    0.       999.9848m 
  418.00000p    0.       999.9848m 
  419.00000p    0.       999.9848m 
  420.00000p    0.       999.9848m 
  421.00000p    0.       999.9848m 
  422.00000p    0.       999.9848m 
  423.00000p    0.       999.9848m 
  424.00000p    0.       999.9848m 
  425.00000p    0.       999.9848m 
  426.00000p    0.       999.9848m 
  427.00000p    0.       999.9848m 
  428.00000p    0.       999.9848m 
  429.00000p    0.       999.9848m 
  430.00000p    0.       999.9848m 
  431.00000p    0.       999.9848m 
  432.00000p    0.       999.9848m 
  433.00000p    0.       999.9848m 
  434.00000p    0.       999.9848m 
  435.00000p    0.       999.9848m 
  436.00000p    0.       999.9848m 
  437.00000p    0.       999.9848m 
  438.00000p    0.       999.9848m 
  439.00000p    0.       999.9848m 
  440.00000p    0.       999.9848m 
  441.00000p    0.       999.9848m 
  442.00000p    0.       999.9848m 
  443.00000p    0.       999.9848m 
  444.00000p    0.       999.9848m 
  445.00000p    0.       999.9848m 
  446.00000p    0.       999.9848m 
  447.00000p    0.       999.9848m 
  448.00000p    0.       999.9848m 
  449.00000p    0.       999.9848m 
  450.00000p    0.       999.9848m 
  451.00000p    0.       999.9848m 
  452.00000p    0.       999.9848m 
  453.00000p    0.       999.9848m 
  454.00000p    0.       999.9848m 
  455.00000p    0.       999.9848m 
  456.00000p    0.       999.9848m 
  457.00000p    0.       999.9848m 
  458.00000p    0.       999.9848m 
  459.00000p    0.       999.9848m 
  460.00000p    0.       999.9848m 
  461.00000p    0.       999.9848m 
  462.00000p    0.       999.9848m 
  463.00000p    0.       999.9848m 
  464.00000p    0.       999.9848m 
  465.00000p    0.       999.9848m 
  466.00000p    0.       999.9848m 
  467.00000p    0.       999.9848m 
  468.00000p    0.       999.9848m 
  469.00000p    0.       999.9848m 
  470.00000p    0.       999.9848m 
  471.00000p    0.       999.9848m 
  472.00000p    0.       999.9848m 
  473.00000p    0.       999.9848m 
  474.00000p    0.       999.9848m 
  475.00000p    0.       999.9848m 
  476.00000p    0.       999.9848m 
  477.00000p    0.       999.9848m 
  478.00000p    0.       999.9848m 
  479.00000p    0.       999.9848m 
  480.00000p    0.       999.9848m 
  481.00000p    0.       999.9848m 
  482.00000p    0.       999.9848m 
  483.00000p    0.       999.9848m 
  484.00000p    0.       999.9848m 
  485.00000p    0.       999.9848m 
  486.00000p    0.       999.9848m 
  487.00000p    0.       999.9848m 
  488.00000p    0.       999.9848m 
  489.00000p    0.       999.9848m 
  490.00000p    0.       999.9848m 
  491.00000p    0.       999.9848m 
  492.00000p    0.       999.9848m 
  493.00000p    0.       999.9848m 
  494.00000p    0.       999.9848m 
  495.00000p    0.       999.9848m 
  496.00000p    0.       999.9848m 
  497.00000p    0.       999.9848m 
  498.00000p    0.       999.9848m 
  499.00000p    0.       999.9848m 
  500.00000p    0.       999.9848m 
  501.00000p    0.       999.9848m 
  502.00000p    0.       999.9848m 
  503.00000p    0.       999.9848m 
  504.00000p    0.       999.9848m 
  505.00000p    0.       999.9848m 
  506.00000p    0.       999.9848m 
  507.00000p    0.       999.9848m 
  508.00000p    0.       999.9848m 
  509.00000p    0.       999.9848m 
  510.00000p    0.       999.9848m 
  511.00000p    0.       999.9848m 
  512.00000p    0.       999.9848m 
  513.00000p    0.       999.9848m 
  514.00000p    0.       999.9848m 
  515.00000p    0.       999.9848m 
  516.00000p    0.       999.9848m 
  517.00000p    0.       999.9848m 
  518.00000p    0.       999.9848m 
  519.00000p    0.       999.9848m 
  520.00000p    0.       999.9848m 
  521.00000p    0.       999.9848m 
  522.00000p    0.       999.9848m 
  523.00000p    0.       999.9848m 
  524.00000p    0.       999.9848m 
  525.00000p    0.       999.9848m 
  526.00000p    0.       999.9848m 
  527.00000p    0.       999.9848m 
  528.00000p    0.       999.9848m 
  529.00000p    0.       999.9848m 
  530.00000p    0.       999.9848m 
  531.00000p    0.       999.9848m 
  532.00000p    0.       999.9848m 
  533.00000p    0.       999.9848m 
  534.00000p    0.       999.9848m 
  535.00000p    0.       999.9848m 
  536.00000p    0.       999.9848m 
  537.00000p    0.       999.9848m 
  538.00000p    0.       999.9848m 
  539.00000p    0.       999.9848m 
  540.00000p    0.       999.9848m 
  541.00000p    0.       999.9848m 
  542.00000p    0.       999.9848m 
  543.00000p    0.       999.9848m 
  544.00000p    0.       999.9848m 
  545.00000p    0.       999.9848m 
  546.00000p    0.       999.9848m 
  547.00000p    0.       999.9848m 
  548.00000p    0.       999.9848m 
  549.00000p    0.       999.9848m 
  550.00000p    0.       999.9848m 
  551.00000p    0.       999.9848m 
  552.00000p    0.       999.9848m 
  553.00000p    0.       999.9848m 
  554.00000p    0.       999.9848m 
  555.00000p    0.       999.9848m 
  556.00000p    0.       999.9848m 
  557.00000p    0.       999.9848m 
  558.00000p    0.       999.9848m 
  559.00000p    0.       999.9848m 
  560.00000p    0.       999.9848m 
  561.00000p    0.       999.9848m 
  562.00000p    0.       999.9848m 
  563.00000p    0.       999.9848m 
  564.00000p    0.       999.9848m 
  565.00000p    0.       999.9848m 
  566.00000p    0.       999.9848m 
  567.00000p    0.       999.9848m 
  568.00000p    0.       999.9848m 
  569.00000p    0.       999.9848m 
  570.00000p    0.       999.9848m 
  571.00000p    0.       999.9848m 
  572.00000p    0.       999.9848m 
  573.00000p    0.       999.9848m 
  574.00000p    0.       999.9848m 
  575.00000p    0.       999.9848m 
  576.00000p    0.       999.9848m 
  577.00000p    0.       999.9848m 
  578.00000p    0.       999.9848m 
  579.00000p    0.       999.9848m 
  580.00000p    0.       999.9848m 
  581.00000p    0.       999.9848m 
  582.00000p    0.       999.9848m 
  583.00000p    0.       999.9848m 
  584.00000p    0.       999.9848m 
  585.00000p    0.       999.9848m 
  586.00000p    0.       999.9848m 
  587.00000p    0.       999.9848m 
  588.00000p    0.       999.9848m 
  589.00000p    0.       999.9848m 
  590.00000p    0.       999.9848m 
  591.00000p    0.       999.9848m 
  592.00000p    0.       999.9848m 
  593.00000p    0.       999.9848m 
  594.00000p    0.       999.9848m 
  595.00000p    0.       999.9848m 
  596.00000p    0.       999.9848m 
  597.00000p    0.       999.9848m 
  598.00000p    0.       999.9848m 
  599.00000p    0.       999.9848m 
  600.00000p    0.       999.9848m 
  601.00000p    0.       999.9848m 
  602.00000p    0.       999.9848m 
  603.00000p    0.       999.9848m 
  604.00000p    0.       999.9848m 
  605.00000p    0.       999.9848m 
  606.00000p    0.       999.9848m 
  607.00000p    0.       999.9848m 
  608.00000p    0.       999.9848m 
  609.00000p    0.       999.9848m 
  610.00000p    0.       999.9848m 
  611.00000p    0.       999.9848m 
  612.00000p    0.       999.9848m 
  613.00000p    0.       999.9848m 
  614.00000p    0.       999.9848m 
  615.00000p    0.       999.9848m 
  616.00000p    0.       999.9848m 
  617.00000p    0.       999.9848m 
  618.00000p    0.       999.9848m 
  619.00000p    0.       999.9848m 
  620.00000p    0.       999.9848m 
  621.00000p    0.       999.9848m 
  622.00000p    0.       999.9848m 
  623.00000p    0.       999.9848m 
  624.00000p    0.       999.9848m 
  625.00000p    0.       999.9848m 
  626.00000p    0.       999.9848m 
  627.00000p    0.       999.9848m 
  628.00000p    0.       999.9848m 
  629.00000p    0.       999.9848m 
  630.00000p    0.       999.9848m 
  631.00000p    0.       999.9848m 
  632.00000p    0.       999.9848m 
  633.00000p    0.       999.9848m 
  634.00000p    0.       999.9848m 
  635.00000p    0.       999.9848m 
  636.00000p    0.       999.9848m 
  637.00000p    0.       999.9848m 
  638.00000p    0.       999.9848m 
  639.00000p    0.       999.9848m 
  640.00000p    0.       999.9848m 
  641.00000p    0.       999.9848m 
  642.00000p    0.       999.9848m 
  643.00000p    0.       999.9848m 
  644.00000p    0.       999.9848m 
  645.00000p    0.       999.9848m 
  646.00000p    0.       999.9848m 
  647.00000p    0.       999.9848m 
  648.00000p    0.       999.9848m 
  649.00000p    0.       999.9848m 
  650.00000p    0.       999.9848m 
  651.00000p    0.       999.9848m 
  652.00000p    0.       999.9848m 
  653.00000p    0.       999.9848m 
  654.00000p    0.       999.9848m 
  655.00000p    0.       999.9848m 
  656.00000p    0.       999.9848m 
  657.00000p    0.       999.9848m 
  658.00000p    0.       999.9848m 
  659.00000p    0.       999.9848m 
  660.00000p    0.       999.9848m 
  661.00000p    0.       999.9848m 
  662.00000p    0.       999.9848m 
  663.00000p    0.       999.9848m 
  664.00000p    0.       999.9848m 
  665.00000p    0.       999.9848m 
  666.00000p    0.       999.9848m 
  667.00000p    0.       999.9848m 
  668.00000p    0.       999.9848m 
  669.00000p    0.       999.9848m 
  670.00000p    0.       999.9848m 
  671.00000p    0.       999.9848m 
  672.00000p    0.       999.9848m 
  673.00000p    0.       999.9848m 
  674.00000p    0.       999.9848m 
  675.00000p    0.       999.9848m 
  676.00000p    0.       999.9848m 
  677.00000p    0.       999.9848m 
  678.00000p    0.       999.9848m 
  679.00000p    0.       999.9848m 
  680.00000p    0.       999.9848m 
  681.00000p    0.       999.9848m 
  682.00000p    0.       999.9848m 
  683.00000p    0.       999.9848m 
  684.00000p    0.       999.9848m 
  685.00000p    0.       999.9848m 
  686.00000p    0.       999.9848m 
  687.00000p    0.       999.9848m 
  688.00000p    0.       999.9848m 
  689.00000p    0.       999.9848m 
  690.00000p    0.       999.9848m 
  691.00000p    0.       999.9848m 
  692.00000p    0.       999.9848m 
  693.00000p    0.       999.9848m 
  694.00000p    0.       999.9848m 
  695.00000p    0.       999.9848m 
  696.00000p    0.       999.9848m 
  697.00000p    0.       999.9848m 
  698.00000p    0.       999.9848m 
  699.00000p    0.       999.9848m 
  700.00000p    0.       999.9848m 
  701.00000p    0.       999.9848m 
  702.00000p    0.       999.9848m 
  703.00000p    0.       999.9848m 
  704.00000p    0.       999.9848m 
  705.00000p    0.       999.9848m 
  706.00000p    0.       999.9848m 
  707.00000p    0.       999.9848m 
  708.00000p    0.       999.9848m 
  709.00000p    0.       999.9848m 
  710.00000p    0.       999.9848m 
  711.00000p    0.       999.9848m 
  712.00000p    0.       999.9848m 
  713.00000p    0.       999.9848m 
  714.00000p    0.       999.9848m 
  715.00000p    0.       999.9848m 
  716.00000p    0.       999.9848m 
  717.00000p    0.       999.9848m 
  718.00000p    0.       999.9848m 
  719.00000p    0.       999.9848m 
  720.00000p    0.       999.9848m 
  721.00000p    0.       999.9848m 
  722.00000p    0.       999.9848m 
  723.00000p    0.       999.9848m 
  724.00000p    0.       999.9848m 
  725.00000p    0.       999.9848m 
  726.00000p    0.       999.9848m 
  727.00000p    0.       999.9848m 
  728.00000p    0.       999.9848m 
  729.00000p    0.       999.9848m 
  730.00000p    0.       999.9848m 
  731.00000p    0.       999.9848m 
  732.00000p    0.       999.9848m 
  733.00000p    0.       999.9848m 
  734.00000p    0.       999.9848m 
  735.00000p    0.       999.9848m 
  736.00000p    0.       999.9848m 
  737.00000p    0.       999.9848m 
  738.00000p    0.       999.9848m 
  739.00000p    0.       999.9848m 
  740.00000p    0.       999.9848m 
  741.00000p    0.       999.9848m 
  742.00000p    0.       999.9848m 
  743.00000p    0.       999.9848m 
  744.00000p    0.       999.9848m 
  745.00000p    0.       999.9848m 
  746.00000p    0.       999.9848m 
  747.00000p    0.       999.9848m 
  748.00000p    0.       999.9848m 
  749.00000p    0.       999.9848m 
  750.00000p    0.       999.9848m 
  751.00000p    0.       999.9848m 
  752.00000p    0.       999.9848m 
  753.00000p    0.       999.9848m 
  754.00000p    0.       999.9848m 
  755.00000p    0.       999.9848m 
  756.00000p    0.       999.9848m 
  757.00000p    0.       999.9848m 
  758.00000p    0.       999.9848m 
  759.00000p    0.       999.9848m 
  760.00000p    0.       999.9848m 
  761.00000p    0.       999.9848m 
  762.00000p    0.       999.9848m 
  763.00000p    0.       999.9848m 
  764.00000p    0.       999.9848m 
  765.00000p    0.       999.9848m 
  766.00000p    0.       999.9848m 
  767.00000p    0.       999.9848m 
  768.00000p    0.       999.9848m 
  769.00000p    0.       999.9848m 
  770.00000p    0.       999.9848m 
  771.00000p    0.       999.9848m 
  772.00000p    0.       999.9848m 
  773.00000p    0.       999.9848m 
  774.00000p    0.       999.9848m 
  775.00000p    0.       999.9848m 
  776.00000p    0.       999.9848m 
  777.00000p    0.       999.9848m 
  778.00000p    0.       999.9848m 
  779.00000p    0.       999.9848m 
  780.00000p    0.       999.9848m 
  781.00000p    0.       999.9848m 
  782.00000p    0.       999.9848m 
  783.00000p    0.       999.9848m 
  784.00000p    0.       999.9848m 
  785.00000p    0.       999.9848m 
  786.00000p    0.       999.9848m 
  787.00000p    0.       999.9848m 
  788.00000p    0.       999.9848m 
  789.00000p    0.       999.9848m 
  790.00000p    0.       999.9848m 
  791.00000p    0.       999.9848m 
  792.00000p    0.       999.9848m 
  793.00000p    0.       999.9848m 
  794.00000p    0.       999.9848m 
  795.00000p    0.       999.9848m 
  796.00000p    0.       999.9848m 
  797.00000p    0.       999.9848m 
  798.00000p    0.       999.9848m 
  799.00000p    0.       999.9848m 
  800.00000p    0.       999.9848m 
  801.00000p    0.       999.9848m 
  802.00000p    0.       999.9848m 
  803.00000p    0.       999.9848m 
  804.00000p    0.       999.9848m 
  805.00000p    0.       999.9848m 
  806.00000p    0.       999.9848m 
  807.00000p    0.       999.9848m 
  808.00000p    0.       999.9848m 
  809.00000p    0.       999.9848m 
  810.00000p    0.       999.9848m 
  811.00000p    0.       999.9848m 
  812.00000p    0.       999.9848m 
  813.00000p    0.       999.9848m 
  814.00000p    0.       999.9848m 
  815.00000p    0.       999.9848m 
  816.00000p    0.       999.9848m 
  817.00000p    0.       999.9848m 
  818.00000p    0.       999.9848m 
  819.00000p    0.       999.9848m 
  820.00000p    0.       999.9848m 
  821.00000p    0.       999.9848m 
  822.00000p    0.       999.9848m 
  823.00000p    0.       999.9848m 
  824.00000p    0.       999.9848m 
  825.00000p    0.       999.9848m 
  826.00000p    0.       999.9848m 
  827.00000p    0.       999.9848m 
  828.00000p    0.       999.9848m 
  829.00000p    0.       999.9848m 
  830.00000p    0.       999.9848m 
  831.00000p    0.       999.9848m 
  832.00000p    0.       999.9848m 
  833.00000p    0.       999.9848m 
  834.00000p    0.       999.9848m 
  835.00000p    0.       999.9848m 
  836.00000p    0.       999.9848m 
  837.00000p    0.       999.9848m 
  838.00000p    0.       999.9848m 
  839.00000p    0.       999.9848m 
  840.00000p    0.       999.9848m 
  841.00000p    0.       999.9848m 
  842.00000p    0.       999.9848m 
  843.00000p    0.       999.9848m 
  844.00000p    0.       999.9848m 
  845.00000p    0.       999.9848m 
  846.00000p    0.       999.9848m 
  847.00000p    0.       999.9848m 
  848.00000p    0.       999.9848m 
  849.00000p    0.       999.9848m 
  850.00000p    0.       999.9848m 
  851.00000p    0.       999.9848m 
  852.00000p    0.       999.9848m 
  853.00000p    0.       999.9848m 
  854.00000p    0.       999.9848m 
  855.00000p    0.       999.9848m 
  856.00000p    0.       999.9848m 
  857.00000p    0.       999.9848m 
  858.00000p    0.       999.9848m 
  859.00000p    0.       999.9848m 
  860.00000p    0.       999.9848m 
  861.00000p    0.       999.9848m 
  862.00000p    0.       999.9848m 
  863.00000p    0.       999.9848m 
  864.00000p    0.       999.9848m 
  865.00000p    0.       999.9848m 
  866.00000p    0.       999.9848m 
  867.00000p    0.       999.9848m 
  868.00000p    0.       999.9848m 
  869.00000p    0.       999.9848m 
  870.00000p    0.       999.9848m 
  871.00000p    0.       999.9848m 
  872.00000p    0.       999.9848m 
  873.00000p    0.       999.9848m 
  874.00000p    0.       999.9848m 
  875.00000p    0.       999.9848m 
  876.00000p    0.       999.9848m 
  877.00000p    0.       999.9848m 
  878.00000p    0.       999.9848m 
  879.00000p    0.       999.9848m 
  880.00000p    0.       999.9848m 
  881.00000p    0.       999.9848m 
  882.00000p    0.       999.9848m 
  883.00000p    0.       999.9848m 
  884.00000p    0.       999.9848m 
  885.00000p    0.       999.9848m 
  886.00000p    0.       999.9848m 
  887.00000p    0.       999.9848m 
  888.00000p    0.       999.9848m 
  889.00000p    0.       999.9848m 
  890.00000p    0.       999.9848m 
  891.00000p    0.       999.9848m 
  892.00000p    0.       999.9848m 
  893.00000p    0.       999.9848m 
  894.00000p    0.       999.9848m 
  895.00000p    0.       999.9848m 
  896.00000p    0.       999.9848m 
  897.00000p    0.       999.9848m 
  898.00000p    0.       999.9848m 
  899.00000p    0.       999.9848m 
  900.00000p    0.       999.9848m 
  901.00000p    0.       999.9848m 
  902.00000p    0.       999.9848m 
  903.00000p    0.       999.9848m 
  904.00000p    0.       999.9848m 
  905.00000p    0.       999.9848m 
  906.00000p    0.       999.9848m 
  907.00000p    0.       999.9848m 
  908.00000p    0.       999.9848m 
  909.00000p    0.       999.9848m 
  910.00000p    0.       999.9848m 
  911.00000p    0.       999.9848m 
  912.00000p    0.       999.9848m 
  913.00000p    0.       999.9848m 
  914.00000p    0.       999.9848m 
  915.00000p    0.       999.9848m 
  916.00000p    0.       999.9848m 
  917.00000p    0.       999.9848m 
  918.00000p    0.       999.9848m 
  919.00000p    0.       999.9848m 
  920.00000p    0.       999.9848m 
  921.00000p    0.       999.9848m 
  922.00000p    0.       999.9848m 
  923.00000p    0.       999.9848m 
  924.00000p    0.       999.9848m 
  925.00000p    0.       999.9848m 
  926.00000p    0.       999.9848m 
  927.00000p    0.       999.9848m 
  928.00000p    0.       999.9848m 
  929.00000p    0.       999.9848m 
  930.00000p    0.       999.9848m 
  931.00000p    0.       999.9848m 
  932.00000p    0.       999.9848m 
  933.00000p    0.       999.9848m 
  934.00000p    0.       999.9848m 
  935.00000p    0.       999.9848m 
  936.00000p    0.       999.9848m 
  937.00000p    0.       999.9848m 
  938.00000p    0.       999.9848m 
  939.00000p    0.       999.9848m 
  940.00000p    0.       999.9848m 
  941.00000p    0.       999.9848m 
  942.00000p    0.       999.9848m 
  943.00000p    0.       999.9848m 
  944.00000p    0.       999.9848m 
  945.00000p    0.       999.9848m 
  946.00000p    0.       999.9848m 
  947.00000p    0.       999.9848m 
  948.00000p    0.       999.9848m 
  949.00000p    0.       999.9848m 
  950.00000p    0.       999.9848m 
  951.00000p    0.       999.9848m 
  952.00000p    0.       999.9848m 
  953.00000p    0.       999.9848m 
  954.00000p    0.       999.9848m 
  955.00000p    0.       999.9848m 
  956.00000p    0.       999.9848m 
  957.00000p    0.       999.9848m 
  958.00000p    0.       999.9848m 
  959.00000p    0.       999.9848m 
  960.00000p    0.       999.9848m 
  961.00000p    0.       999.9848m 
  962.00000p    0.       999.9848m 
  963.00000p    0.       999.9848m 
  964.00000p    0.       999.9848m 
  965.00000p    0.       999.9848m 
  966.00000p    0.       999.9848m 
  967.00000p    0.       999.9848m 
  968.00000p    0.       999.9848m 
  969.00000p    0.       999.9848m 
  970.00000p    0.       999.9848m 
  971.00000p    0.       999.9848m 
  972.00000p    0.       999.9848m 
  973.00000p    0.       999.9848m 
  974.00000p    0.       999.9848m 
  975.00000p    0.       999.9848m 
  976.00000p    0.       999.9848m 
  977.00000p    0.       999.9848m 
  978.00000p    0.       999.9848m 
  979.00000p    0.       999.9848m 
  980.00000p    0.       999.9848m 
  981.00000p    0.       999.9848m 
  982.00000p    0.       999.9848m 
  983.00000p    0.       999.9848m 
  984.00000p    0.       999.9848m 
  985.00000p    0.       999.9848m 
  986.00000p    0.       999.9848m 
  987.00000p    0.       999.9848m 
  988.00000p    0.       999.9848m 
  989.00000p    0.       999.9848m 
  990.00000p    0.       999.9848m 
  991.00000p    0.       999.9848m 
  992.00000p    0.       999.9848m 
  993.00000p    0.       999.9848m 
  994.00000p    0.       999.9848m 
  995.00000p    0.       999.9848m 
  996.00000p    0.       999.9848m 
  997.00000p    0.       999.9848m 
  998.00000p    0.       999.9848m 
  999.00000p    0.       999.9848m 
    1.00000n    0.       999.9848m 
    1.00100n    0.       999.9848m 
    1.00200n    0.       999.9848m 
    1.00300n    0.       999.9848m 
    1.00400n    0.       999.9848m 
    1.00500n    0.       999.9848m 
    1.00600n    0.       999.9848m 
    1.00700n    0.       999.9848m 
    1.00800n    0.       999.9848m 
    1.00900n    0.       999.9848m 
    1.01000n    0.       999.9848m 
    1.01100n    0.       999.9848m 
    1.01200n    0.       999.9848m 
    1.01300n    0.       999.9848m 
    1.01400n    0.       999.9848m 
    1.01500n    0.       999.9848m 
    1.01600n    0.       999.9848m 
    1.01700n    0.       999.9848m 
    1.01800n    0.       999.9848m 
    1.01900n    0.       999.9848m 
    1.02000n    0.       999.9848m 
    1.02100n    0.       999.9848m 
    1.02200n    0.       999.9848m 
    1.02300n    0.       999.9848m 
    1.02400n    0.       999.9848m 
    1.02500n    0.       999.9848m 
    1.02600n    0.       999.9848m 
    1.02700n    0.       999.9848m 
    1.02800n    0.       999.9848m 
    1.02900n    0.       999.9848m 
    1.03000n    0.       999.9848m 
    1.03100n    0.       999.9848m 
    1.03200n    0.       999.9848m 
    1.03300n    0.       999.9848m 
    1.03400n    0.       999.9848m 
    1.03500n    0.       999.9848m 
    1.03600n    0.       999.9848m 
    1.03700n    0.       999.9848m 
    1.03800n    0.       999.9848m 
    1.03900n    0.       999.9848m 
    1.04000n    0.       999.9848m 
    1.04100n    0.       999.9848m 
    1.04200n    0.       999.9848m 
    1.04300n    0.       999.9848m 
    1.04400n    0.       999.9848m 
    1.04500n    0.       999.9848m 
    1.04600n    0.       999.9848m 
    1.04700n    0.       999.9848m 
    1.04800n    0.       999.9848m 
    1.04900n    0.       999.9848m 
    1.05000n    0.       999.9848m 
    1.05100n    0.       999.9848m 
    1.05200n    0.       999.9848m 
    1.05300n    0.       999.9848m 
    1.05400n    0.       999.9848m 
    1.05500n    0.       999.9848m 
    1.05600n    0.       999.9848m 
    1.05700n    0.       999.9848m 
    1.05800n    0.       999.9848m 
    1.05900n    0.       999.9848m 
    1.06000n    0.       999.9848m 
    1.06100n    0.       999.9848m 
    1.06200n    0.       999.9848m 
    1.06300n    0.       999.9848m 
    1.06400n    0.       999.9848m 
    1.06500n    0.       999.9848m 
    1.06600n    0.       999.9848m 
    1.06700n    0.       999.9848m 
    1.06800n    0.       999.9848m 
    1.06900n    0.       999.9848m 
    1.07000n    0.       999.9848m 
    1.07100n    0.       999.9848m 
    1.07200n    0.       999.9848m 
    1.07300n    0.       999.9848m 
    1.07400n    0.       999.9848m 
    1.07500n    0.       999.9848m 
    1.07600n    0.       999.9848m 
    1.07700n    0.       999.9848m 
    1.07800n    0.       999.9848m 
    1.07900n    0.       999.9848m 
    1.08000n    0.       999.9848m 
    1.08100n    0.       999.9848m 
    1.08200n    0.       999.9848m 
    1.08300n    0.       999.9848m 
    1.08400n    0.       999.9848m 
    1.08500n    0.       999.9848m 
    1.08600n    0.       999.9848m 
    1.08700n    0.       999.9848m 
    1.08800n    0.       999.9848m 
    1.08900n    0.       999.9848m 
    1.09000n    0.       999.9848m 
    1.09100n    0.       999.9848m 
    1.09200n    0.       999.9848m 
    1.09300n    0.       999.9848m 
    1.09400n    0.       999.9848m 
    1.09500n    0.       999.9848m 
    1.09600n    0.       999.9848m 
    1.09700n    0.       999.9848m 
    1.09800n    0.       999.9848m 
    1.09900n    0.       999.9848m 
    1.10000n    0.       999.9848m 
    1.10100n    0.       999.9848m 
    1.10200n    0.       999.9848m 
    1.10300n    0.       999.9848m 
    1.10400n    0.       999.9848m 
    1.10500n    0.       999.9848m 
    1.10600n    0.       999.9848m 
    1.10700n    0.       999.9848m 
    1.10800n    0.       999.9848m 
    1.10900n    0.       999.9848m 
    1.11000n    0.       999.9848m 
    1.11100n    0.       999.9848m 
    1.11200n    0.       999.9848m 
    1.11300n    0.       999.9848m 
    1.11400n    0.       999.9848m 
    1.11500n    0.       999.9848m 
    1.11600n    0.       999.9848m 
    1.11700n    0.       999.9848m 
    1.11800n    0.       999.9848m 
    1.11900n    0.       999.9848m 
    1.12000n    0.       999.9848m 
    1.12100n    0.       999.9848m 
    1.12200n    0.       999.9848m 
    1.12300n    0.       999.9848m 
    1.12400n    0.       999.9848m 
    1.12500n    0.       999.9848m 
    1.12600n    0.       999.9848m 
    1.12700n    0.       999.9848m 
    1.12800n    0.       999.9848m 
    1.12900n    0.       999.9848m 
    1.13000n    0.       999.9848m 
    1.13100n    0.       999.9848m 
    1.13200n    0.       999.9848m 
    1.13300n    0.       999.9848m 
    1.13400n    0.       999.9848m 
    1.13500n    0.       999.9848m 
    1.13600n    0.       999.9848m 
    1.13700n    0.       999.9848m 
    1.13800n    0.       999.9848m 
    1.13900n    0.       999.9848m 
    1.14000n    0.       999.9848m 
    1.14100n    0.       999.9848m 
    1.14200n    0.       999.9848m 
    1.14300n    0.       999.9848m 
    1.14400n    0.       999.9848m 
    1.14500n    0.       999.9848m 
    1.14600n    0.       999.9848m 
    1.14700n    0.       999.9848m 
    1.14800n    0.       999.9848m 
    1.14900n    0.       999.9848m 
    1.15000n    0.       999.9848m 
    1.15100n    0.       999.9848m 
    1.15200n    0.       999.9848m 
    1.15300n    0.       999.9848m 
    1.15400n    0.       999.9848m 
    1.15500n    0.       999.9848m 
    1.15600n    0.       999.9848m 
    1.15700n    0.       999.9848m 
    1.15800n    0.       999.9848m 
    1.15900n    0.       999.9848m 
    1.16000n    0.       999.9848m 
    1.16100n    0.       999.9848m 
    1.16200n    0.       999.9848m 
    1.16300n    0.       999.9848m 
    1.16400n    0.       999.9848m 
    1.16500n    0.       999.9848m 
    1.16600n    0.       999.9848m 
    1.16700n    0.       999.9848m 
    1.16800n    0.       999.9848m 
    1.16900n    0.       999.9848m 
    1.17000n    0.       999.9848m 
    1.17100n    0.       999.9848m 
    1.17200n    0.       999.9848m 
    1.17300n    0.       999.9848m 
    1.17400n    0.       999.9848m 
    1.17500n    0.       999.9848m 
    1.17600n    0.       999.9848m 
    1.17700n    0.       999.9848m 
    1.17800n    0.       999.9848m 
    1.17900n    0.       999.9848m 
    1.18000n    0.       999.9848m 
    1.18100n    0.       999.9848m 
    1.18200n    0.       999.9848m 
    1.18300n    0.       999.9848m 
    1.18400n    0.       999.9848m 
    1.18500n    0.       999.9848m 
    1.18600n    0.       999.9848m 
    1.18700n    0.       999.9848m 
    1.18800n    0.       999.9848m 
    1.18900n    0.       999.9848m 
    1.19000n    0.       999.9848m 
    1.19100n    0.       999.9848m 
    1.19200n    0.       999.9848m 
    1.19300n    0.       999.9848m 
    1.19400n    0.       999.9848m 
    1.19500n    0.       999.9848m 
    1.19600n    0.       999.9848m 
    1.19700n    0.       999.9848m 
    1.19800n    0.       999.9848m 
    1.19900n    0.       999.9848m 
    1.20000n    0.       999.9848m 
    1.20100n    0.       999.9848m 
    1.20200n    0.       999.9848m 
    1.20300n    0.       999.9848m 
    1.20400n    0.       999.9848m 
    1.20500n    0.       999.9848m 
    1.20600n    0.       999.9848m 
    1.20700n    0.       999.9848m 
    1.20800n    0.       999.9848m 
    1.20900n    0.       999.9848m 
    1.21000n    0.       999.9848m 
    1.21100n    0.       999.9848m 
    1.21200n    0.       999.9848m 
    1.21300n    0.       999.9848m 
    1.21400n    0.       999.9848m 
    1.21500n    0.       999.9848m 
    1.21600n    0.       999.9848m 
    1.21700n    0.       999.9848m 
    1.21800n    0.       999.9848m 
    1.21900n    0.       999.9848m 
    1.22000n    0.       999.9848m 
    1.22100n    0.       999.9848m 
    1.22200n    0.       999.9848m 
    1.22300n    0.       999.9848m 
    1.22400n    0.       999.9848m 
    1.22500n    0.       999.9848m 
    1.22600n    0.       999.9848m 
    1.22700n    0.       999.9848m 
    1.22800n    0.       999.9848m 
    1.22900n    0.       999.9848m 
    1.23000n    0.       999.9848m 
    1.23100n    0.       999.9848m 
    1.23200n    0.       999.9848m 
    1.23300n    0.       999.9848m 
    1.23400n    0.       999.9848m 
    1.23500n    0.       999.9848m 
    1.23600n    0.       999.9848m 
    1.23700n    0.       999.9848m 
    1.23800n    0.       999.9848m 
    1.23900n    0.       999.9848m 
    1.24000n    0.       999.9848m 
    1.24100n    0.       999.9848m 
    1.24200n    0.       999.9848m 
    1.24300n    0.       999.9848m 
    1.24400n    0.       999.9848m 
    1.24500n    0.       999.9848m 
    1.24600n    0.       999.9848m 
    1.24700n    0.       999.9848m 
    1.24800n    0.       999.9848m 
    1.24900n    0.       999.9848m 
    1.25000n    0.       999.9848m 
    1.25100n    0.       999.9848m 
    1.25200n    0.       999.9848m 
    1.25300n    0.       999.9848m 
    1.25400n    0.       999.9848m 
    1.25500n    0.       999.9848m 
    1.25600n    0.       999.9848m 
    1.25700n    0.       999.9848m 
    1.25800n    0.       999.9848m 
    1.25900n    0.       999.9848m 
    1.26000n    0.       999.9848m 
    1.26100n    0.       999.9848m 
    1.26200n    0.       999.9848m 
    1.26300n    0.       999.9848m 
    1.26400n    0.       999.9848m 
    1.26500n    0.       999.9848m 
    1.26600n    0.       999.9848m 
    1.26700n    0.       999.9848m 
    1.26800n    0.       999.9848m 
    1.26900n    0.       999.9848m 
    1.27000n    0.       999.9848m 
    1.27100n    0.       999.9848m 
    1.27200n    0.       999.9848m 
    1.27300n    0.       999.9848m 
    1.27400n    0.       999.9848m 
    1.27500n    0.       999.9848m 
    1.27600n    0.       999.9848m 
    1.27700n    0.       999.9848m 
    1.27800n    0.       999.9848m 
    1.27900n    0.       999.9848m 
    1.28000n    0.       999.9848m 
    1.28100n    0.       999.9848m 
    1.28200n    0.       999.9848m 
    1.28300n    0.       999.9848m 
    1.28400n    0.       999.9848m 
    1.28500n    0.       999.9848m 
    1.28600n    0.       999.9848m 
    1.28700n    0.       999.9848m 
    1.28800n    0.       999.9848m 
    1.28900n    0.       999.9848m 
    1.29000n    0.       999.9848m 
    1.29100n    0.       999.9848m 
    1.29200n    0.       999.9848m 
    1.29300n    0.       999.9848m 
    1.29400n    0.       999.9848m 
    1.29500n    0.       999.9848m 
    1.29600n    0.       999.9848m 
    1.29700n    0.       999.9848m 
    1.29800n    0.       999.9848m 
    1.29900n    0.       999.9848m 
    1.30000n    0.       999.9848m 
    1.30100n    0.       999.9848m 
    1.30200n    0.       999.9848m 
    1.30300n    0.       999.9848m 
    1.30400n    0.       999.9848m 
    1.30500n    0.       999.9848m 
    1.30600n    0.       999.9848m 
    1.30700n    0.       999.9848m 
    1.30800n    0.       999.9848m 
    1.30900n    0.       999.9848m 
    1.31000n    0.       999.9848m 
    1.31100n    0.       999.9848m 
    1.31200n    0.       999.9848m 
    1.31300n    0.       999.9848m 
    1.31400n    0.       999.9848m 
    1.31500n    0.       999.9848m 
    1.31600n    0.       999.9848m 
    1.31700n    0.       999.9848m 
    1.31800n    0.       999.9848m 
    1.31900n    0.       999.9848m 
    1.32000n    0.       999.9848m 
    1.32100n    0.       999.9848m 
    1.32200n    0.       999.9848m 
    1.32300n    0.       999.9848m 
    1.32400n    0.       999.9848m 
    1.32500n    0.       999.9848m 
    1.32600n    0.       999.9848m 
    1.32700n    0.       999.9848m 
    1.32800n    0.       999.9848m 
    1.32900n    0.       999.9848m 
    1.33000n    0.       999.9848m 
    1.33100n    0.       999.9848m 
    1.33200n    0.       999.9848m 
    1.33300n    0.       999.9848m 
    1.33400n    0.       999.9848m 
    1.33500n    0.       999.9848m 
    1.33600n    0.       999.9848m 
    1.33700n    0.       999.9848m 
    1.33800n    0.       999.9848m 
    1.33900n    0.       999.9848m 
    1.34000n    0.       999.9848m 
    1.34100n    0.       999.9848m 
    1.34200n    0.       999.9848m 
    1.34300n    0.       999.9848m 
    1.34400n    0.       999.9848m 
    1.34500n    0.       999.9848m 
    1.34600n    0.       999.9848m 
    1.34700n    0.       999.9848m 
    1.34800n    0.       999.9848m 
    1.34900n    0.       999.9848m 
    1.35000n    0.       999.9848m 
    1.35100n    0.       999.9848m 
    1.35200n    0.       999.9848m 
    1.35300n    0.       999.9848m 
    1.35400n    0.       999.9848m 
    1.35500n    0.       999.9848m 
    1.35600n    0.       999.9848m 
    1.35700n    0.       999.9848m 
    1.35800n    0.       999.9848m 
    1.35900n    0.       999.9848m 
    1.36000n    0.       999.9848m 
    1.36100n    0.       999.9848m 
    1.36200n    0.       999.9848m 
    1.36300n    0.       999.9848m 
    1.36400n    0.       999.9848m 
    1.36500n    0.       999.9848m 
    1.36600n    0.       999.9848m 
    1.36700n    0.       999.9848m 
    1.36800n    0.       999.9848m 
    1.36900n    0.       999.9848m 
    1.37000n    0.       999.9848m 
    1.37100n    0.       999.9848m 
    1.37200n    0.       999.9848m 
    1.37300n    0.       999.9848m 
    1.37400n    0.       999.9848m 
    1.37500n    0.       999.9848m 
    1.37600n    0.       999.9848m 
    1.37700n    0.       999.9848m 
    1.37800n    0.       999.9848m 
    1.37900n    0.       999.9848m 
    1.38000n    0.       999.9848m 
    1.38100n    0.       999.9848m 
    1.38200n    0.       999.9848m 
    1.38300n    0.       999.9848m 
    1.38400n    0.       999.9848m 
    1.38500n    0.       999.9848m 
    1.38600n    0.       999.9848m 
    1.38700n    0.       999.9848m 
    1.38800n    0.       999.9848m 
    1.38900n    0.       999.9848m 
    1.39000n    0.       999.9848m 
    1.39100n    0.       999.9848m 
    1.39200n    0.       999.9848m 
    1.39300n    0.       999.9848m 
    1.39400n    0.       999.9848m 
    1.39500n    0.       999.9848m 
    1.39600n    0.       999.9848m 
    1.39700n    0.       999.9848m 
    1.39800n    0.       999.9848m 
    1.39900n    0.       999.9848m 
    1.40000n    0.       999.9848m 
    1.40100n    0.       999.9848m 
    1.40200n    0.       999.9848m 
    1.40300n    0.       999.9848m 
    1.40400n    0.       999.9848m 
    1.40500n    0.       999.9848m 
    1.40600n    0.       999.9848m 
    1.40700n    0.       999.9848m 
    1.40800n    0.       999.9848m 
    1.40900n    0.       999.9848m 
    1.41000n    0.       999.9848m 
    1.41100n    0.       999.9848m 
    1.41200n    0.       999.9848m 
    1.41300n    0.       999.9848m 
    1.41400n    0.       999.9848m 
    1.41500n    0.       999.9848m 
    1.41600n    0.       999.9848m 
    1.41700n    0.       999.9848m 
    1.41800n    0.       999.9848m 
    1.41900n    0.       999.9848m 
    1.42000n    0.       999.9848m 
    1.42100n    0.       999.9848m 
    1.42200n    0.       999.9848m 
    1.42300n    0.       999.9848m 
    1.42400n    0.       999.9848m 
    1.42500n    0.       999.9848m 
    1.42600n    0.       999.9848m 
    1.42700n    0.       999.9848m 
    1.42800n    0.       999.9848m 
    1.42900n    0.       999.9848m 
    1.43000n    0.       999.9848m 
    1.43100n    0.       999.9848m 
    1.43200n    0.       999.9848m 
    1.43300n    0.       999.9848m 
    1.43400n    0.       999.9848m 
    1.43500n    0.       999.9848m 
    1.43600n    0.       999.9848m 
    1.43700n    0.       999.9848m 
    1.43800n    0.       999.9848m 
    1.43900n    0.       999.9848m 
    1.44000n    0.       999.9848m 
    1.44100n    0.       999.9848m 
    1.44200n    0.       999.9848m 
    1.44300n    0.       999.9848m 
    1.44400n    0.       999.9848m 
    1.44500n    0.       999.9848m 
    1.44600n    0.       999.9848m 
    1.44700n    0.       999.9848m 
    1.44800n    0.       999.9848m 
    1.44900n    0.       999.9848m 
    1.45000n    0.       999.9848m 
    1.45100n    0.       999.9848m 
    1.45200n    0.       999.9848m 
    1.45300n    0.       999.9848m 
    1.45400n    0.       999.9848m 
    1.45500n    0.       999.9848m 
    1.45600n    0.       999.9848m 
    1.45700n    0.       999.9848m 
    1.45800n    0.       999.9848m 
    1.45900n    0.       999.9848m 
    1.46000n    0.       999.9848m 
    1.46100n    0.       999.9848m 
    1.46200n    0.       999.9848m 
    1.46300n    0.       999.9848m 
    1.46400n    0.       999.9848m 
    1.46500n    0.       999.9848m 
    1.46600n    0.       999.9848m 
    1.46700n    0.       999.9848m 
    1.46800n    0.       999.9848m 
    1.46900n    0.       999.9848m 
    1.47000n    0.       999.9848m 
    1.47100n    0.       999.9848m 
    1.47200n    0.       999.9848m 
    1.47300n    0.       999.9848m 
    1.47400n    0.       999.9848m 
    1.47500n    0.       999.9848m 
    1.47600n    0.       999.9848m 
    1.47700n    0.       999.9848m 
    1.47800n    0.       999.9848m 
    1.47900n    0.       999.9848m 
    1.48000n    0.       999.9848m 
    1.48100n    0.       999.9848m 
    1.48200n    0.       999.9848m 
    1.48300n    0.       999.9848m 
    1.48400n    0.       999.9848m 
    1.48500n    0.       999.9848m 
    1.48600n    0.       999.9848m 
    1.48700n    0.       999.9848m 
    1.48800n    0.       999.9848m 
    1.48900n    0.       999.9848m 
    1.49000n    0.       999.9848m 
    1.49100n    0.       999.9848m 
    1.49200n    0.       999.9848m 
    1.49300n    0.       999.9848m 
    1.49400n    0.       999.9848m 
    1.49500n    0.       999.9848m 
    1.49600n    0.       999.9848m 
    1.49700n    0.       999.9848m 
    1.49800n    0.       999.9848m 
    1.49900n    0.       999.9848m 
    1.50000n    0.       999.9848m 
    1.50100n    0.       999.9848m 
    1.50200n    0.       999.9848m 
    1.50300n    0.       999.9848m 
    1.50400n    0.       999.9848m 
    1.50500n    0.       999.9848m 
    1.50600n    0.       999.9848m 
    1.50700n    0.       999.9848m 
    1.50800n    0.       999.9848m 
    1.50900n    0.       999.9848m 
    1.51000n    0.       999.9848m 
    1.51100n    0.       999.9848m 
    1.51200n    0.       999.9848m 
    1.51300n    0.       999.9848m 
    1.51400n    0.       999.9848m 
    1.51500n    0.       999.9848m 
    1.51600n    0.       999.9848m 
    1.51700n    0.       999.9848m 
    1.51800n    0.       999.9848m 
    1.51900n    0.       999.9848m 
    1.52000n    0.       999.9848m 
    1.52100n    0.       999.9848m 
    1.52200n    0.       999.9848m 
    1.52300n    0.       999.9848m 
    1.52400n    0.       999.9848m 
    1.52500n    0.       999.9848m 
    1.52600n    0.       999.9848m 
    1.52700n    0.       999.9848m 
    1.52800n    0.       999.9848m 
    1.52900n    0.       999.9848m 
    1.53000n    0.       999.9848m 
    1.53100n    0.       999.9848m 
    1.53200n    0.       999.9848m 
    1.53300n    0.       999.9848m 
    1.53400n    0.       999.9848m 
    1.53500n    0.       999.9848m 
    1.53600n    0.       999.9848m 
    1.53700n    0.       999.9848m 
    1.53800n    0.       999.9848m 
    1.53900n    0.       999.9848m 
    1.54000n    0.       999.9848m 
    1.54100n    0.       999.9848m 
    1.54200n    0.       999.9848m 
    1.54300n    0.       999.9848m 
    1.54400n    0.       999.9848m 
    1.54500n    0.       999.9848m 
    1.54600n    0.       999.9848m 
    1.54700n    0.       999.9848m 
    1.54800n    0.       999.9848m 
    1.54900n    0.       999.9848m 
    1.55000n    0.       999.9848m 
    1.55100n    0.       999.9848m 
    1.55200n    0.       999.9848m 
    1.55300n    0.       999.9848m 
    1.55400n    0.       999.9848m 
    1.55500n    0.       999.9848m 
    1.55600n    0.       999.9848m 
    1.55700n    0.       999.9848m 
    1.55800n    0.       999.9848m 
    1.55900n    0.       999.9848m 
    1.56000n    0.       999.9848m 
    1.56100n    0.       999.9848m 
    1.56200n    0.       999.9848m 
    1.56300n    0.       999.9848m 
    1.56400n    0.       999.9848m 
    1.56500n    0.       999.9848m 
    1.56600n    0.       999.9848m 
    1.56700n    0.       999.9848m 
    1.56800n    0.       999.9848m 
    1.56900n    0.       999.9848m 
    1.57000n    0.       999.9848m 
    1.57100n    0.       999.9848m 
    1.57200n    0.       999.9848m 
    1.57300n    0.       999.9848m 
    1.57400n    0.       999.9848m 
    1.57500n    0.       999.9848m 
    1.57600n    0.       999.9848m 
    1.57700n    0.       999.9848m 
    1.57800n    0.       999.9848m 
    1.57900n    0.       999.9848m 
    1.58000n    0.       999.9848m 
    1.58100n    0.       999.9848m 
    1.58200n    0.       999.9848m 
    1.58300n    0.       999.9848m 
    1.58400n    0.       999.9848m 
    1.58500n    0.       999.9848m 
    1.58600n    0.       999.9848m 
    1.58700n    0.       999.9848m 
    1.58800n    0.       999.9848m 
    1.58900n    0.       999.9848m 
    1.59000n    0.       999.9848m 
    1.59100n    0.       999.9848m 
    1.59200n    0.       999.9848m 
    1.59300n    0.       999.9848m 
    1.59400n    0.       999.9848m 
    1.59500n    0.       999.9848m 
    1.59600n    0.       999.9848m 
    1.59700n    0.       999.9848m 
    1.59800n    0.       999.9848m 
    1.59900n    0.       999.9848m 
    1.60000n    0.       999.9848m 
    1.60100n    0.       999.9848m 
    1.60200n    0.       999.9848m 
    1.60300n    0.       999.9848m 
    1.60400n    0.       999.9848m 
    1.60500n    0.       999.9848m 
    1.60600n    0.       999.9848m 
    1.60700n    0.       999.9848m 
    1.60800n    0.       999.9848m 
    1.60900n    0.       999.9848m 
    1.61000n    0.       999.9848m 
    1.61100n    0.       999.9848m 
    1.61200n    0.       999.9848m 
    1.61300n    0.       999.9848m 
    1.61400n    0.       999.9848m 
    1.61500n    0.       999.9848m 
    1.61600n    0.       999.9848m 
    1.61700n    0.       999.9848m 
    1.61800n    0.       999.9848m 
    1.61900n    0.       999.9848m 
    1.62000n    0.       999.9848m 
    1.62100n    0.       999.9848m 
    1.62200n    0.       999.9848m 
    1.62300n    0.       999.9848m 
    1.62400n    0.       999.9848m 
    1.62500n    0.       999.9848m 
    1.62600n    0.       999.9848m 
    1.62700n    0.       999.9848m 
    1.62800n    0.       999.9848m 
    1.62900n    0.       999.9848m 
    1.63000n    0.       999.9848m 
    1.63100n    0.       999.9848m 
    1.63200n    0.       999.9848m 
    1.63300n    0.       999.9848m 
    1.63400n    0.       999.9848m 
    1.63500n    0.       999.9848m 
    1.63600n    0.       999.9848m 
    1.63700n    0.       999.9848m 
    1.63800n    0.       999.9848m 
    1.63900n    0.       999.9848m 
    1.64000n    0.       999.9848m 
    1.64100n    0.       999.9848m 
    1.64200n    0.       999.9848m 
    1.64300n    0.       999.9848m 
    1.64400n    0.       999.9848m 
    1.64500n    0.       999.9848m 
    1.64600n    0.       999.9848m 
    1.64700n    0.       999.9848m 
    1.64800n    0.       999.9848m 
    1.64900n    0.       999.9848m 
    1.65000n    0.       999.9848m 
    1.65100n    0.       999.9848m 
    1.65200n    0.       999.9848m 
    1.65300n    0.       999.9848m 
    1.65400n    0.       999.9848m 
    1.65500n    0.       999.9848m 
    1.65600n    0.       999.9848m 
    1.65700n    0.       999.9848m 
    1.65800n    0.       999.9848m 
    1.65900n    0.       999.9848m 
    1.66000n    0.       999.9848m 
    1.66100n    0.       999.9848m 
    1.66200n    0.       999.9848m 
    1.66300n    0.       999.9848m 
    1.66400n    0.       999.9848m 
    1.66500n    0.       999.9848m 
    1.66600n    0.       999.9848m 
    1.66700n    0.       999.9848m 
    1.66800n    0.       999.9848m 
    1.66900n    0.       999.9848m 
    1.67000n    0.       999.9848m 
    1.67100n    0.       999.9848m 
    1.67200n    0.       999.9848m 
    1.67300n    0.       999.9848m 
    1.67400n    0.       999.9848m 
    1.67500n    0.       999.9848m 
    1.67600n    0.       999.9848m 
    1.67700n    0.       999.9848m 
    1.67800n    0.       999.9848m 
    1.67900n    0.       999.9848m 
    1.68000n    0.       999.9848m 
    1.68100n    0.       999.9848m 
    1.68200n    0.       999.9848m 
    1.68300n    0.       999.9848m 
    1.68400n    0.       999.9848m 
    1.68500n    0.       999.9848m 
    1.68600n    0.       999.9848m 
    1.68700n    0.       999.9848m 
    1.68800n    0.       999.9848m 
    1.68900n    0.       999.9848m 
    1.69000n    0.       999.9848m 
    1.69100n    0.       999.9848m 
    1.69200n    0.       999.9848m 
    1.69300n    0.       999.9848m 
    1.69400n    0.       999.9848m 
    1.69500n    0.       999.9848m 
    1.69600n    0.       999.9848m 
    1.69700n    0.       999.9848m 
    1.69800n    0.       999.9848m 
    1.69900n    0.       999.9848m 
    1.70000n    0.       999.9848m 
    1.70100n    0.       999.9848m 
    1.70200n    0.       999.9848m 
    1.70300n    0.       999.9848m 
    1.70400n    0.       999.9848m 
    1.70500n    0.       999.9848m 
    1.70600n    0.       999.9848m 
    1.70700n    0.       999.9848m 
    1.70800n    0.       999.9848m 
    1.70900n    0.       999.9848m 
    1.71000n    0.       999.9848m 
    1.71100n    0.       999.9848m 
    1.71200n    0.       999.9848m 
    1.71300n    0.       999.9848m 
    1.71400n    0.       999.9848m 
    1.71500n    0.       999.9848m 
    1.71600n    0.       999.9848m 
    1.71700n    0.       999.9848m 
    1.71800n    0.       999.9848m 
    1.71900n    0.       999.9848m 
    1.72000n    0.       999.9848m 
    1.72100n    0.       999.9848m 
    1.72200n    0.       999.9848m 
    1.72300n    0.       999.9848m 
    1.72400n    0.       999.9848m 
    1.72500n    0.       999.9848m 
    1.72600n    0.       999.9848m 
    1.72700n    0.       999.9848m 
    1.72800n    0.       999.9848m 
    1.72900n    0.       999.9848m 
    1.73000n    0.       999.9848m 
    1.73100n    0.       999.9848m 
    1.73200n    0.       999.9848m 
    1.73300n    0.       999.9848m 
    1.73400n    0.       999.9848m 
    1.73500n    0.       999.9848m 
    1.73600n    0.       999.9848m 
    1.73700n    0.       999.9848m 
    1.73800n    0.       999.9848m 
    1.73900n    0.       999.9848m 
    1.74000n    0.       999.9848m 
    1.74100n    0.       999.9848m 
    1.74200n    0.       999.9848m 
    1.74300n    0.       999.9848m 
    1.74400n    0.       999.9848m 
    1.74500n    0.       999.9848m 
    1.74600n    0.       999.9848m 
    1.74700n    0.       999.9848m 
    1.74800n    0.       999.9848m 
    1.74900n    0.       999.9848m 
    1.75000n    0.       999.9848m 
    1.75100n    0.       999.9848m 
    1.75200n    0.       999.9848m 
    1.75300n    0.       999.9848m 
    1.75400n    0.       999.9848m 
    1.75500n    0.       999.9848m 
    1.75600n    0.       999.9848m 
    1.75700n    0.       999.9848m 
    1.75800n    0.       999.9848m 
    1.75900n    0.       999.9848m 
    1.76000n    0.       999.9848m 
    1.76100n    0.       999.9848m 
    1.76200n    0.       999.9848m 
    1.76300n    0.       999.9848m 
    1.76400n    0.       999.9848m 
    1.76500n    0.       999.9848m 
    1.76600n    0.       999.9848m 
    1.76700n    0.       999.9848m 
    1.76800n    0.       999.9848m 
    1.76900n    0.       999.9848m 
    1.77000n    0.       999.9848m 
    1.77100n    0.       999.9848m 
    1.77200n    0.       999.9848m 
    1.77300n    0.       999.9848m 
    1.77400n    0.       999.9848m 
    1.77500n    0.       999.9848m 
    1.77600n    0.       999.9848m 
    1.77700n    0.       999.9848m 
    1.77800n    0.       999.9848m 
    1.77900n    0.       999.9848m 
    1.78000n    0.       999.9848m 
    1.78100n    0.       999.9848m 
    1.78200n    0.       999.9848m 
    1.78300n    0.       999.9848m 
    1.78400n    0.       999.9848m 
    1.78500n    0.       999.9848m 
    1.78600n    0.       999.9848m 
    1.78700n    0.       999.9848m 
    1.78800n    0.       999.9848m 
    1.78900n    0.       999.9848m 
    1.79000n    0.       999.9848m 
    1.79100n    0.       999.9848m 
    1.79200n    0.       999.9848m 
    1.79300n    0.       999.9848m 
    1.79400n    0.       999.9848m 
    1.79500n    0.       999.9848m 
    1.79600n    0.       999.9848m 
    1.79700n    0.       999.9848m 
    1.79800n    0.       999.9848m 
    1.79900n    0.       999.9848m 
    1.80000n    0.       999.9848m 
    1.80100n    0.       999.9848m 
    1.80200n    0.       999.9848m 
    1.80300n    0.       999.9848m 
    1.80400n    0.       999.9848m 
    1.80500n    0.       999.9848m 
    1.80600n    0.       999.9848m 
    1.80700n    0.       999.9848m 
    1.80800n    0.       999.9848m 
    1.80900n    0.       999.9848m 
    1.81000n    0.       999.9848m 
    1.81100n    0.       999.9848m 
    1.81200n    0.       999.9848m 
    1.81300n    0.       999.9848m 
    1.81400n    0.       999.9848m 
    1.81500n    0.       999.9848m 
    1.81600n    0.       999.9848m 
    1.81700n    0.       999.9848m 
    1.81800n    0.       999.9848m 
    1.81900n    0.       999.9848m 
    1.82000n    0.       999.9848m 
    1.82100n    0.       999.9848m 
    1.82200n    0.       999.9848m 
    1.82300n    0.       999.9848m 
    1.82400n    0.       999.9848m 
    1.82500n    0.       999.9848m 
    1.82600n    0.       999.9848m 
    1.82700n    0.       999.9848m 
    1.82800n    0.       999.9848m 
    1.82900n    0.       999.9848m 
    1.83000n    0.       999.9848m 
    1.83100n    0.       999.9848m 
    1.83200n    0.       999.9848m 
    1.83300n    0.       999.9848m 
    1.83400n    0.       999.9848m 
    1.83500n    0.       999.9848m 
    1.83600n    0.       999.9848m 
    1.83700n    0.       999.9848m 
    1.83800n    0.       999.9848m 
    1.83900n    0.       999.9848m 
    1.84000n    0.       999.9848m 
    1.84100n    0.       999.9848m 
    1.84200n    0.       999.9848m 
    1.84300n    0.       999.9848m 
    1.84400n    0.       999.9848m 
    1.84500n    0.       999.9848m 
    1.84600n    0.       999.9848m 
    1.84700n    0.       999.9848m 
    1.84800n    0.       999.9848m 
    1.84900n    0.       999.9848m 
    1.85000n    0.       999.9848m 
    1.85100n    0.       999.9848m 
    1.85200n    0.       999.9848m 
    1.85300n    0.       999.9848m 
    1.85400n    0.       999.9848m 
    1.85500n    0.       999.9848m 
    1.85600n    0.       999.9848m 
    1.85700n    0.       999.9848m 
    1.85800n    0.       999.9848m 
    1.85900n    0.       999.9848m 
    1.86000n    0.       999.9848m 
    1.86100n    0.       999.9848m 
    1.86200n    0.       999.9848m 
    1.86300n    0.       999.9848m 
    1.86400n    0.       999.9848m 
    1.86500n    0.       999.9848m 
    1.86600n    0.       999.9848m 
    1.86700n    0.       999.9848m 
    1.86800n    0.       999.9848m 
    1.86900n    0.       999.9848m 
    1.87000n    0.       999.9848m 
    1.87100n    0.       999.9848m 
    1.87200n    0.       999.9848m 
    1.87300n    0.       999.9848m 
    1.87400n    0.       999.9848m 
    1.87500n    0.       999.9848m 
    1.87600n    0.       999.9848m 
    1.87700n    0.       999.9848m 
    1.87800n    0.       999.9848m 
    1.87900n    0.       999.9848m 
    1.88000n    0.       999.9848m 
    1.88100n    0.       999.9848m 
    1.88200n    0.       999.9848m 
    1.88300n    0.       999.9848m 
    1.88400n    0.       999.9848m 
    1.88500n    0.       999.9848m 
    1.88600n    0.       999.9848m 
    1.88700n    0.       999.9848m 
    1.88800n    0.       999.9848m 
    1.88900n    0.       999.9848m 
    1.89000n    0.       999.9848m 
    1.89100n    0.       999.9848m 
    1.89200n    0.       999.9848m 
    1.89300n    0.       999.9848m 
    1.89400n    0.       999.9848m 
    1.89500n    0.       999.9848m 
    1.89600n    0.       999.9848m 
    1.89700n    0.       999.9848m 
    1.89800n    0.       999.9848m 
    1.89900n    0.       999.9848m 
    1.90000n    0.       999.9848m 
    1.90100n    0.       999.9848m 
    1.90200n    0.       999.9848m 
    1.90300n    0.       999.9848m 
    1.90400n    0.       999.9848m 
    1.90500n    0.       999.9848m 
    1.90600n    0.       999.9848m 
    1.90700n    0.       999.9848m 
    1.90800n    0.       999.9848m 
    1.90900n    0.       999.9848m 
    1.91000n    0.       999.9848m 
    1.91100n    0.       999.9848m 
    1.91200n    0.       999.9848m 
    1.91300n    0.       999.9848m 
    1.91400n    0.       999.9848m 
    1.91500n    0.       999.9848m 
    1.91600n    0.       999.9848m 
    1.91700n    0.       999.9848m 
    1.91800n    0.       999.9848m 
    1.91900n    0.       999.9848m 
    1.92000n    0.       999.9848m 
    1.92100n    0.       999.9848m 
    1.92200n    0.       999.9848m 
    1.92300n    0.       999.9848m 
    1.92400n    0.       999.9848m 
    1.92500n    0.       999.9848m 
    1.92600n    0.       999.9848m 
    1.92700n    0.       999.9848m 
    1.92800n    0.       999.9848m 
    1.92900n    0.       999.9848m 
    1.93000n    0.       999.9848m 
    1.93100n    0.       999.9848m 
    1.93200n    0.       999.9848m 
    1.93300n    0.       999.9848m 
    1.93400n    0.       999.9848m 
    1.93500n    0.       999.9848m 
    1.93600n    0.       999.9848m 
    1.93700n    0.       999.9848m 
    1.93800n    0.       999.9848m 
    1.93900n    0.       999.9848m 
    1.94000n    0.       999.9848m 
    1.94100n    0.       999.9848m 
    1.94200n    0.       999.9848m 
    1.94300n    0.       999.9848m 
    1.94400n    0.       999.9848m 
    1.94500n    0.       999.9848m 
    1.94600n    0.       999.9848m 
    1.94700n    0.       999.9848m 
    1.94800n    0.       999.9848m 
    1.94900n    0.       999.9848m 
    1.95000n    0.       999.9848m 
    1.95100n    0.       999.9848m 
    1.95200n    0.       999.9848m 
    1.95300n    0.       999.9848m 
    1.95400n    0.       999.9848m 
    1.95500n    0.       999.9848m 
    1.95600n    0.       999.9848m 
    1.95700n    0.       999.9848m 
    1.95800n    0.       999.9848m 
    1.95900n    0.       999.9848m 
    1.96000n    0.       999.9848m 
    1.96100n    0.       999.9848m 
    1.96200n    0.       999.9848m 
    1.96300n    0.       999.9848m 
    1.96400n    0.       999.9848m 
    1.96500n    0.       999.9848m 
    1.96600n    0.       999.9848m 
    1.96700n    0.       999.9848m 
    1.96800n    0.       999.9848m 
    1.96900n    0.       999.9848m 
    1.97000n    0.       999.9848m 
    1.97100n    0.       999.9848m 
    1.97200n    0.       999.9848m 
    1.97300n    0.       999.9848m 
    1.97400n    0.       999.9848m 
    1.97500n    0.       999.9848m 
    1.97600n    0.       999.9848m 
    1.97700n    0.       999.9848m 
    1.97800n    0.       999.9848m 
    1.97900n    0.       999.9848m 
    1.98000n    0.       999.9848m 
    1.98100n    0.       999.9848m 
    1.98200n    0.       999.9848m 
    1.98300n    0.       999.9848m 
    1.98400n    0.       999.9848m 
    1.98500n    0.       999.9848m 
    1.98600n    0.       999.9848m 
    1.98700n    0.       999.9848m 
    1.98800n    0.       999.9848m 
    1.98900n    0.       999.9848m 
    1.99000n    0.       999.9848m 
    1.99100n    0.       999.9848m 
    1.99200n    0.       999.9848m 
    1.99300n    0.       999.9848m 
    1.99400n    0.       999.9848m 
    1.99500n    0.       999.9848m 
    1.99600n    0.       999.9848m 
    1.99700n    0.       999.9848m 
    1.99800n    0.       999.9848m 
    1.99900n    0.       999.9848m 
    2.00000n    0.       999.9848m 
    2.00100n    0.       999.9848m 
    2.00200n    0.       999.9848m 
    2.00300n    0.       999.9848m 
    2.00400n    0.       999.9848m 
    2.00500n    0.       999.9848m 
    2.00600n    0.       999.9848m 
    2.00700n    0.       999.9848m 
    2.00800n    0.       999.9848m 
    2.00900n    0.       999.9848m 
    2.01000n    0.       999.9848m 
    2.01100n    0.       999.9848m 
    2.01200n    0.       999.9848m 
    2.01300n    0.       999.9848m 
    2.01400n    0.       999.9848m 
    2.01500n    0.       999.9848m 
    2.01600n    0.       999.9848m 
    2.01700n    0.       999.9848m 
    2.01800n    0.       999.9848m 
    2.01900n    0.       999.9848m 
    2.02000n    0.       999.9848m 
    2.02100n    0.       999.9848m 
    2.02200n    0.       999.9848m 
    2.02300n    0.       999.9848m 
    2.02400n    0.       999.9848m 
    2.02500n    0.       999.9848m 
    2.02600n    0.       999.9848m 
    2.02700n    0.       999.9848m 
    2.02800n    0.       999.9848m 
    2.02900n    0.       999.9848m 
    2.03000n    0.       999.9848m 
    2.03100n    0.       999.9848m 
    2.03200n    0.       999.9848m 
    2.03300n    0.       999.9848m 
    2.03400n    0.       999.9848m 
    2.03500n    0.       999.9848m 
    2.03600n    0.       999.9848m 
    2.03700n    0.       999.9848m 
    2.03800n    0.       999.9848m 
    2.03900n    0.       999.9848m 
    2.04000n    0.       999.9848m 
    2.04100n    0.       999.9848m 
    2.04200n    0.       999.9848m 
    2.04300n    0.       999.9848m 
    2.04400n    0.       999.9848m 
    2.04500n    0.       999.9848m 
    2.04600n    0.       999.9848m 
    2.04700n    0.       999.9848m 
    2.04800n    0.       999.9848m 
    2.04900n    0.       999.9848m 
    2.05000n    0.       999.9848m 
    2.05100n    0.       999.9848m 
    2.05200n    0.       999.9848m 
    2.05300n    0.       999.9848m 
    2.05400n    0.       999.9848m 
    2.05500n    0.       999.9848m 
    2.05600n    0.       999.9848m 
    2.05700n    0.       999.9848m 
    2.05800n    0.       999.9848m 
    2.05900n    0.       999.9848m 
    2.06000n    0.       999.9848m 
    2.06100n    0.       999.9848m 
    2.06200n    0.       999.9848m 
    2.06300n    0.       999.9848m 
    2.06400n    0.       999.9848m 
    2.06500n    0.       999.9848m 
    2.06600n    0.       999.9848m 
    2.06700n    0.       999.9848m 
    2.06800n    0.       999.9848m 
    2.06900n    0.       999.9848m 
    2.07000n    0.       999.9848m 
    2.07100n    0.       999.9848m 
    2.07200n    0.       999.9848m 
    2.07300n    0.       999.9848m 
    2.07400n    0.       999.9848m 
    2.07500n    0.       999.9848m 
    2.07600n    0.       999.9848m 
    2.07700n    0.       999.9848m 
    2.07800n    0.       999.9848m 
    2.07900n    0.       999.9848m 
    2.08000n    0.       999.9848m 
    2.08100n    0.       999.9848m 
    2.08200n    0.       999.9848m 
    2.08300n    0.       999.9848m 
    2.08400n    0.       999.9848m 
    2.08500n    0.       999.9848m 
    2.08600n    0.       999.9848m 
    2.08700n    0.       999.9848m 
    2.08800n    0.       999.9848m 
    2.08900n    0.       999.9848m 
    2.09000n    0.       999.9848m 
    2.09100n    0.       999.9848m 
    2.09200n    0.       999.9848m 
    2.09300n    0.       999.9848m 
    2.09400n    0.       999.9848m 
    2.09500n    0.       999.9848m 
    2.09600n    0.       999.9848m 
    2.09700n    0.       999.9848m 
    2.09800n    0.       999.9848m 
    2.09900n    0.       999.9848m 
    2.10000n    0.       999.9848m 
    2.10100n    0.       999.9848m 
    2.10200n    0.       999.9848m 
    2.10300n    0.       999.9848m 
    2.10400n    0.       999.9848m 
    2.10500n    0.       999.9848m 
    2.10600n    0.       999.9848m 
    2.10700n    0.       999.9848m 
    2.10800n    0.       999.9848m 
    2.10900n    0.       999.9848m 
    2.11000n    0.       999.9848m 
    2.11100n    0.       999.9848m 
    2.11200n    0.       999.9848m 
    2.11300n    0.       999.9848m 
    2.11400n    0.       999.9848m 
    2.11500n    0.       999.9848m 
    2.11600n    0.       999.9848m 
    2.11700n    0.       999.9848m 
    2.11800n    0.       999.9848m 
    2.11900n    0.       999.9848m 
    2.12000n    0.       999.9848m 
    2.12100n    0.       999.9848m 
    2.12200n    0.       999.9848m 
    2.12300n    0.       999.9848m 
    2.12400n    0.       999.9848m 
    2.12500n    0.       999.9848m 
    2.12600n    0.       999.9848m 
    2.12700n    0.       999.9848m 
    2.12800n    0.       999.9848m 
    2.12900n    0.       999.9848m 
    2.13000n    0.       999.9848m 
    2.13100n    0.       999.9848m 
    2.13200n    0.       999.9848m 
    2.13300n    0.       999.9848m 
    2.13400n    0.       999.9848m 
    2.13500n    0.       999.9848m 
    2.13600n    0.       999.9848m 
    2.13700n    0.       999.9848m 
    2.13800n    0.       999.9848m 
    2.13900n    0.       999.9848m 
    2.14000n    0.       999.9848m 
    2.14100n    0.       999.9848m 
    2.14200n    0.       999.9848m 
    2.14300n    0.       999.9848m 
    2.14400n    0.       999.9848m 
    2.14500n    0.       999.9848m 
    2.14600n    0.       999.9848m 
    2.14700n    0.       999.9848m 
    2.14800n    0.       999.9848m 
    2.14900n    0.       999.9848m 
    2.15000n    0.       999.9848m 
    2.15100n    0.       999.9848m 
    2.15200n    0.       999.9848m 
    2.15300n    0.       999.9848m 
    2.15400n    0.       999.9848m 
    2.15500n    0.       999.9848m 
    2.15600n    0.       999.9848m 
    2.15700n    0.       999.9848m 
    2.15800n    0.       999.9848m 
    2.15900n    0.       999.9848m 
    2.16000n    0.       999.9848m 
    2.16100n    0.       999.9848m 
    2.16200n    0.       999.9848m 
    2.16300n    0.       999.9848m 
[...]
   14.49100n    0.       999.9848m 
   14.49200n    0.       999.9848m 
   14.49300n    0.       999.9848m 
   14.49400n    0.       999.9848m 
   14.49500n    0.       999.9848m 
   14.49600n    0.       999.9848m 
   14.49700n    0.       999.9848m 
   14.49800n    0.       999.9848m 
   14.49900n    0.       999.9848m 
   14.50000n    0.       999.9848m 
   14.50100n    0.       999.9848m 
   14.50200n    0.       999.9848m 
   14.50300n    0.       999.9848m 
   14.50400n    0.       999.9848m 
   14.50500n    0.       999.9848m 
   14.50600n    0.       999.9848m 
   14.50700n    0.       999.9848m 
   14.50800n    0.       999.9848m 
   14.50900n    0.       999.9848m 
   14.51000n    0.       999.9848m 
   14.51100n    0.       999.9848m 
   14.51200n    0.       999.9848m 
   14.51300n    0.       999.9848m 
   14.51400n    0.       999.9848m 
   14.51500n    0.       999.9848m 
   14.51600n    0.       999.9848m 
   14.51700n    0.       999.9848m 
   14.51800n    0.       999.9848m 
   14.51900n    0.       999.9848m 
   14.52000n    0.       999.9848m 
   14.52100n    0.       999.9848m 
   14.52200n    0.       999.9848m 
   14.52300n    0.       999.9848m 
   14.52400n    0.       999.9848m 
   14.52500n    0.       999.9848m 
   14.52600n    0.       999.9848m 
   14.52700n    0.       999.9848m 
   14.52800n    0.       999.9848m 
   14.52900n    0.       999.9848m 
   14.53000n    0.       999.9848m 
   14.53100n    0.       999.9848m 
   14.53200n    0.       999.9848m 
   14.53300n    0.       999.9848m 
   14.53400n    0.       999.9848m 
   14.53500n    0.       999.9848m 
   14.53600n    0.       999.9848m 
   14.53700n    0.       999.9848m 
   14.53800n    0.       999.9848m 
   14.53900n    0.       999.9848m 
   14.54000n    0.       999.9848m 
   14.54100n    0.       999.9848m 
   14.54200n    0.       999.9848m 
   14.54300n    0.       999.9848m 
   14.54400n    0.       999.9848m 
   14.54500n    0.       999.9848m 
   14.54600n    0.       999.9848m 
   14.54700n    0.       999.9848m 
   14.54800n    0.       999.9848m 
   14.54900n    0.       999.9848m 
   14.55000n    0.       999.9848m 
   14.55100n    0.       999.9848m 
   14.55200n    0.       999.9848m 
   14.55300n    0.       999.9848m 
   14.55400n    0.       999.9848m 
   14.55500n    0.       999.9848m 
   14.55600n    0.       999.9848m 
   14.55700n    0.       999.9848m 
   14.55800n    0.       999.9848m 
   14.55900n    0.       999.9848m 
   14.56000n    0.       999.9848m 
   14.56100n    0.       999.9848m 
   14.56200n    0.       999.9848m 
   14.56300n    0.       999.9848m 
   14.56400n    0.       999.9848m 
   14.56500n    0.       999.9848m 
   14.56600n    0.       999.9848m 
   14.56700n    0.       999.9848m 
   14.56800n    0.       999.9848m 
   14.56900n    0.       999.9848m 
   14.57000n    0.       999.9848m 
   14.57100n    0.       999.9848m 
   14.57200n    0.       999.9848m 
   14.57300n    0.       999.9848m 
   14.57400n    0.       999.9848m 
   14.57500n    0.       999.9848m 
   14.57600n    0.       999.9848m 
   14.57700n    0.       999.9848m 
   14.57800n    0.       999.9848m 
   14.57900n    0.       999.9848m 
   14.58000n    0.       999.9848m 
   14.58100n    0.       999.9848m 
   14.58200n    0.       999.9848m 
   14.58300n    0.       999.9848m 
   14.58400n    0.       999.9848m 
   14.58500n    0.       999.9848m 
   14.58600n    0.       999.9848m 
   14.58700n    0.       999.9848m 
   14.58800n    0.       999.9848m 
   14.58900n    0.       999.9848m 
   14.59000n    0.       999.9848m 
   14.59100n    0.       999.9848m 
   14.59200n    0.       999.9848m 
   14.59300n    0.       999.9848m 
   14.59400n    0.       999.9848m 
   14.59500n    0.       999.9848m 
   14.59600n    0.       999.9848m 
   14.59700n    0.       999.9848m 
   14.59800n    0.       999.9848m 
   14.59900n    0.       999.9848m 
   14.60000n    0.       999.9848m 
   14.60100n    0.       999.9848m 
   14.60200n    0.       999.9848m 
   14.60300n    0.       999.9848m 
   14.60400n    0.       999.9848m 
   14.60500n    0.       999.9848m 
   14.60600n    0.       999.9848m 
   14.60700n    0.       999.9848m 
   14.60800n    0.       999.9848m 
   14.60900n    0.       999.9848m 
   14.61000n    0.       999.9848m 
   14.61100n    0.       999.9848m 
   14.61200n    0.       999.9848m 
   14.61300n    0.       999.9848m 
   14.61400n    0.       999.9848m 
   14.61500n    0.       999.9848m 
   14.61600n    0.       999.9848m 
   14.61700n    0.       999.9848m 
   14.61800n    0.       999.9848m 
   14.61900n    0.       999.9848m 
   14.62000n    0.       999.9848m 
   14.62100n    0.       999.9848m 
   14.62200n    0.       999.9848m 
   14.62300n    0.       999.9848m 
   14.62400n    0.       999.9848m 
   14.62500n    0.       999.9848m 
   14.62600n    0.       999.9848m 
   14.62700n    0.       999.9848m 
   14.62800n    0.       999.9848m 
   14.62900n    0.       999.9848m 
   14.63000n    0.       999.9848m 
   14.63100n    0.       999.9848m 
   14.63200n    0.       999.9848m 
   14.63300n    0.       999.9848m 
   14.63400n    0.       999.9848m 
   14.63500n    0.       999.9848m 
   14.63600n    0.       999.9848m 
   14.63700n    0.       999.9848m 
   14.63800n    0.       999.9848m 
   14.63900n    0.       999.9848m 
   14.64000n    0.       999.9848m 
   14.64100n    0.       999.9848m 
   14.64200n    0.       999.9848m 
   14.64300n    0.       999.9848m 
   14.64400n    0.       999.9848m 
   14.64500n    0.       999.9848m 
   14.64600n    0.       999.9848m 
   14.64700n    0.       999.9848m 
   14.64800n    0.       999.9848m 
   14.64900n    0.       999.9848m 
   14.65000n    0.       999.9848m 
   14.65100n    0.       999.9848m 
   14.65200n    0.       999.9848m 
   14.65300n    0.       999.9848m 
   14.65400n    0.       999.9848m 
   14.65500n    0.       999.9848m 
   14.65600n    0.       999.9848m 
   14.65700n    0.       999.9848m 
   14.65800n    0.       999.9848m 
   14.65900n    0.       999.9848m 
   14.66000n    0.       999.9848m 
   14.66100n    0.       999.9848m 
   14.66200n    0.       999.9848m 
   14.66300n    0.       999.9848m 
   14.66400n    0.       999.9848m 
   14.66500n    0.       999.9848m 
   14.66600n    0.       999.9848m 
   14.66700n    0.       999.9848m 
   14.66800n    0.       999.9848m 
   14.66900n    0.       999.9848m 
   14.67000n    0.       999.9848m 
   14.67100n    0.       999.9848m 
   14.67200n    0.       999.9848m 
   14.67300n    0.       999.9848m 
   14.67400n    0.       999.9848m 
   14.67500n    0.       999.9848m 
   14.67600n    0.       999.9848m 
   14.67700n    0.       999.9848m 
   14.67800n    0.       999.9848m 
   14.67900n    0.       999.9848m 
   14.68000n    0.       999.9848m 
   14.68100n    0.       999.9848m 
   14.68200n    0.       999.9848m 
   14.68300n    0.       999.9848m 
   14.68400n    0.       999.9848m 
   14.68500n    0.       999.9848m 
   14.68600n    0.       999.9848m 
   14.68700n    0.       999.9848m 
   14.68800n    0.       999.9848m 
   14.68900n    0.       999.9848m 
   14.69000n    0.       999.9848m 
   14.69100n    0.       999.9848m 
   14.69200n    0.       999.9848m 
   14.69300n    0.       999.9848m 
   14.69400n    0.       999.9848m 
   14.69500n    0.       999.9848m 
   14.69600n    0.       999.9848m 
   14.69700n    0.       999.9848m 
   14.69800n    0.       999.9848m 
   14.69900n    0.       999.9848m 
   14.70000n    0.       999.9848m 
   14.70100n    0.       999.9848m 
   14.70200n    0.       999.9848m 
   14.70300n    0.       999.9848m 
   14.70400n    0.       999.9848m 
   14.70500n    0.       999.9848m 
   14.70600n    0.       999.9848m 
   14.70700n    0.       999.9848m 
   14.70800n    0.       999.9848m 
   14.70900n    0.       999.9848m 
   14.71000n    0.       999.9848m 
   14.71100n    0.       999.9848m 
   14.71200n    0.       999.9848m 
   14.71300n    0.       999.9848m 
   14.71400n    0.       999.9848m 
   14.71500n    0.       999.9848m 
   14.71600n    0.       999.9848m 
   14.71700n    0.       999.9848m 
   14.71800n    0.       999.9848m 
   14.71900n    0.       999.9848m 
   14.72000n    0.       999.9848m 
   14.72100n    0.       999.9848m 
   14.72200n    0.       999.9848m 
   14.72300n    0.       999.9848m 
   14.72400n    0.       999.9848m 
   14.72500n    0.       999.9848m 
   14.72600n    0.       999.9848m 
   14.72700n    0.       999.9848m 
   14.72800n    0.       999.9848m 
   14.72900n    0.       999.9848m 
   14.73000n    0.       999.9848m 
   14.73100n    0.       999.9848m 
   14.73200n    0.       999.9848m 
   14.73300n    0.       999.9848m 
   14.73400n    0.       999.9848m 
   14.73500n    0.       999.9848m 
   14.73600n    0.       999.9848m 
   14.73700n    0.       999.9848m 
   14.73800n    0.       999.9848m 
   14.73900n    0.       999.9848m 
   14.74000n    0.       999.9848m 
   14.74100n    0.       999.9848m 
   14.74200n    0.       999.9848m 
   14.74300n    0.       999.9848m 
   14.74400n    0.       999.9848m 
   14.74500n    0.       999.9848m 
   14.74600n    0.       999.9848m 
   14.74700n    0.       999.9848m 
   14.74800n    0.       999.9848m 
   14.74900n    0.       999.9848m 
   14.75000n    0.       999.9848m 
   14.75100n    0.       999.9848m 
   14.75200n    0.       999.9848m 
   14.75300n    0.       999.9848m 
   14.75400n    0.       999.9848m 
   14.75500n    0.       999.9848m 
   14.75600n    0.       999.9848m 
   14.75700n    0.       999.9848m 
   14.75800n    0.       999.9848m 
   14.75900n    0.       999.9848m 
   14.76000n    0.       999.9848m 
   14.76100n    0.       999.9848m 
   14.76200n    0.       999.9848m 
   14.76300n    0.       999.9848m 
   14.76400n    0.       999.9848m 
   14.76500n    0.       999.9848m 
   14.76600n    0.       999.9848m 
   14.76700n    0.       999.9848m 
   14.76800n    0.       999.9848m 
   14.76900n    0.       999.9848m 
   14.77000n    0.       999.9848m 
   14.77100n    0.       999.9848m 
   14.77200n    0.       999.9848m 
   14.77300n    0.       999.9848m 
   14.77400n    0.       999.9848m 
   14.77500n    0.       999.9848m 
   14.77600n    0.       999.9848m 
   14.77700n    0.       999.9848m 
   14.77800n    0.       999.9848m 
   14.77900n    0.       999.9848m 
   14.78000n    0.       999.9848m 
   14.78100n    0.       999.9848m 
   14.78200n    0.       999.9848m 
   14.78300n    0.       999.9848m 
   14.78400n    0.       999.9848m 
   14.78500n    0.       999.9848m 
   14.78600n    0.       999.9848m 
   14.78700n    0.       999.9848m 
   14.78800n    0.       999.9848m 
   14.78900n    0.       999.9848m 
   14.79000n    0.       999.9848m 
   14.79100n    0.       999.9848m 
   14.79200n    0.       999.9848m 
   14.79300n    0.       999.9848m 
   14.79400n    0.       999.9848m 
   14.79500n    0.       999.9848m 
   14.79600n    0.       999.9848m 
   14.79700n    0.       999.9848m 
   14.79800n    0.       999.9848m 
   14.79900n    0.       999.9848m 
   14.80000n    0.       999.9848m 
   14.80100n    0.       999.9848m 
   14.80200n    0.       999.9848m 
   14.80300n    0.       999.9848m 
   14.80400n    0.       999.9848m 
   14.80500n    0.       999.9848m 
   14.80600n    0.       999.9848m 
   14.80700n    0.       999.9848m 
   14.80800n    0.       999.9848m 
   14.80900n    0.       999.9848m 
   14.81000n    0.       999.9848m 
   14.81100n    0.       999.9848m 
   14.81200n    0.       999.9848m 
   14.81300n    0.       999.9848m 
   14.81400n    0.       999.9848m 
   14.81500n    0.       999.9848m 
   14.81600n    0.       999.9848m 
   14.81700n    0.       999.9848m 
   14.81800n    0.       999.9848m 
   14.81900n    0.       999.9848m 
   14.82000n    0.       999.9848m 
   14.82100n    0.       999.9848m 
   14.82200n    0.       999.9848m 
   14.82300n    0.       999.9848m 
   14.82400n    0.       999.9848m 
   14.82500n    0.       999.9848m 
   14.82600n    0.       999.9848m 
   14.82700n    0.       999.9848m 
   14.82800n    0.       999.9848m 
   14.82900n    0.       999.9848m 
   14.83000n    0.       999.9848m 
   14.83100n    0.       999.9848m 
   14.83200n    0.       999.9848m 
   14.83300n    0.       999.9848m 
   14.83400n    0.       999.9848m 
   14.83500n    0.       999.9848m 
   14.83600n    0.       999.9848m 
   14.83700n    0.       999.9848m 
   14.83800n    0.       999.9848m 
   14.83900n    0.       999.9848m 
   14.84000n    0.       999.9848m 
   14.84100n    0.       999.9848m 
   14.84200n    0.       999.9848m 
   14.84300n    0.       999.9848m 
   14.84400n    0.       999.9848m 
   14.84500n    0.       999.9848m 
   14.84600n    0.       999.9848m 
   14.84700n    0.       999.9848m 
   14.84800n    0.       999.9848m 
   14.84900n    0.       999.9848m 
   14.85000n    0.       999.9848m 
   14.85100n    0.       999.9848m 
   14.85200n    0.       999.9848m 
   14.85300n    0.       999.9848m 
   14.85400n    0.       999.9848m 
   14.85500n    0.       999.9848m 
   14.85600n    0.       999.9848m 
   14.85700n    0.       999.9848m 
   14.85800n    0.       999.9848m 
   14.85900n    0.       999.9848m 
   14.86000n    0.       999.9848m 
   14.86100n    0.       999.9848m 
   14.86200n    0.       999.9848m 
   14.86300n    0.       999.9848m 
   14.86400n    0.       999.9848m 
   14.86500n    0.       999.9848m 
   14.86600n    0.       999.9848m 
   14.86700n    0.       999.9848m 
   14.86800n    0.       999.9848m 
   14.86900n    0.       999.9848m 
   14.87000n    0.       999.9848m 
   14.87100n    0.       999.9848m 
   14.87200n    0.       999.9848m 
   14.87300n    0.       999.9848m 
   14.87400n    0.       999.9848m 
   14.87500n    0.       999.9848m 
   14.87600n    0.       999.9848m 
   14.87700n    0.       999.9848m 
   14.87800n    0.       999.9848m 
   14.87900n    0.       999.9848m 
   14.88000n    0.       999.9848m 
   14.88100n    0.       999.9848m 
   14.88200n    0.       999.9848m 
   14.88300n    0.       999.9848m 
   14.88400n    0.       999.9848m 
   14.88500n    0.       999.9848m 
   14.88600n    0.       999.9848m 
   14.88700n    0.       999.9848m 
   14.88800n    0.       999.9848m 
   14.88900n    0.       999.9848m 
   14.89000n    0.       999.9848m 
   14.89100n    0.       999.9848m 
   14.89200n    0.       999.9848m 
   14.89300n    0.       999.9848m 
   14.89400n    0.       999.9848m 
   14.89500n    0.       999.9848m 
   14.89600n    0.       999.9848m 
   14.89700n    0.       999.9848m 
   14.89800n    0.       999.9848m 
   14.89900n    0.       999.9848m 
   14.90000n    0.       999.9848m 
   14.90100n    0.       999.9848m 
   14.90200n    0.       999.9848m 
   14.90300n    0.       999.9848m 
   14.90400n    0.       999.9848m 
   14.90500n    0.       999.9848m 
   14.90600n    0.       999.9848m 
   14.90700n    0.       999.9848m 
   14.90800n    0.       999.9848m 
   14.90900n    0.       999.9848m 
   14.91000n    0.       999.9848m 
   14.91100n    0.       999.9848m 
   14.91200n    0.       999.9848m 
   14.91300n    0.       999.9848m 
   14.91400n    0.       999.9848m 
   14.91500n    0.       999.9848m 
   14.91600n    0.       999.9848m 
   14.91700n    0.       999.9848m 
   14.91800n    0.       999.9848m 
   14.91900n    0.       999.9848m 
   14.92000n    0.       999.9848m 
   14.92100n    0.       999.9848m 
   14.92200n    0.       999.9848m 
   14.92300n    0.       999.9848m 
   14.92400n    0.       999.9848m 
   14.92500n    0.       999.9848m 
   14.92600n    0.       999.9848m 
   14.92700n    0.       999.9848m 
   14.92800n    0.       999.9848m 
   14.92900n    0.       999.9848m 
   14.93000n    0.       999.9848m 
   14.93100n    0.       999.9848m 
   14.93200n    0.       999.9848m 
   14.93300n    0.       999.9848m 
   14.93400n    0.       999.9848m 
   14.93500n    0.       999.9848m 
   14.93600n    0.       999.9848m 
   14.93700n    0.       999.9848m 
   14.93800n    0.       999.9848m 
   14.93900n    0.       999.9848m 
   14.94000n    0.       999.9848m 
   14.94100n    0.       999.9848m 
   14.94200n    0.       999.9848m 
   14.94300n    0.       999.9848m 
   14.94400n    0.       999.9848m 
   14.94500n    0.       999.9848m 
   14.94600n    0.       999.9848m 
   14.94700n    0.       999.9848m 
   14.94800n    0.       999.9848m 
   14.94900n    0.       999.9848m 
   14.95000n    0.       999.9848m 
   14.95100n    0.       999.9848m 
   14.95200n    0.       999.9848m 
   14.95300n    0.       999.9848m 
   14.95400n    0.       999.9848m 
   14.95500n    0.       999.9848m 
   14.95600n    0.       999.9848m 
   14.95700n    0.       999.9848m 
   14.95800n    0.       999.9848m 
   14.95900n    0.       999.9848m 
   14.96000n    0.       999.9848m 
   14.96100n    0.       999.9848m 
   14.96200n    0.       999.9848m 
   14.96300n    0.       999.9848m 
   14.96400n    0.       999.9848m 
   14.96500n    0.       999.9848m 
   14.96600n    0.       999.9848m 
   14.96700n    0.       999.9848m 
   14.96800n    0.       999.9848m 
   14.96900n    0.       999.9848m 
   14.97000n    0.       999.9848m 
   14.97100n    0.       999.9848m 
   14.97200n    0.       999.9848m 
   14.97300n    0.       999.9848m 
   14.97400n    0.       999.9848m 
   14.97500n    0.       999.9848m 
   14.97600n    0.       999.9848m 
   14.97700n    0.       999.9848m 
   14.97800n    0.       999.9848m 
   14.97900n    0.       999.9848m 
   14.98000n    0.       999.9848m 
   14.98100n    0.       999.9848m 
   14.98200n    0.       999.9848m 
   14.98300n    0.       999.9848m 
   14.98400n    0.       999.9848m 
   14.98500n    0.       999.9848m 
   14.98600n    0.       999.9848m 
   14.98700n    0.       999.9848m 
   14.98800n    0.       999.9848m 
   14.98900n    0.       999.9848m 
   14.99000n    0.       999.9848m 
   14.99100n    0.       999.9848m 
   14.99200n    0.       999.9848m 
   14.99300n    0.       999.9848m 
   14.99400n    0.       999.9848m 
   14.99500n    0.       999.9848m 
   14.99600n    0.       999.9848m 
   14.99700n    0.       999.9848m 
   14.99800n    0.       999.9848m 
   14.99900n    0.       999.9848m 
   15.00000n    0.       999.9848m 
y
 thl=   5.2422n
 tlh=  10.2196n

          ***** job concluded
 ******  
 

 ****** job statistics summary tnom=  25.000 temp=  25.000 ******

  ******  HSPICE Threads Information  ******

  Command Line Threads Count :     1
  Available CPU Count        :     8
  Actual Threads Count       :     1


  ******  Circuit Statistics  ******
  # nodes       =      12 # elements   =       5
  # resistors   =       0 # capacitors =       1 # inductors   =       0
  # mutual_inds =       0 # vccs       =       0 # vcvs        =       0
  # cccs        =       0 # ccvs       =       0 # volt_srcs   =       2
  # curr_srcs   =       0 # diodes     =       0 # bjts        =       0
  # jfets       =       0 # mosfets    =       2 # U elements  =       0
  # T elements  =       0 # W elements =       0 # B elements  =       0
  # S elements  =       0 # P elements =       0 # va device   =       0
  # vector_srcs =       0 # N elements =       0


  ******  Runtime Statistics (seconds)  ******

  analysis           time    # points   tot. iter  conv.iter
  op point           0.00           1           4
  transient          0.01       15001         149          67 rev=         4
  readin             0.02
  errchk             0.00
  setup              0.00
  output             0.00


           peak memory used         60.67 megabytes
           total cpu time            0.14 seconds
           total elapsed time        0.19 seconds
           job started at     15:18:46 11/12/2021
           job ended   at     15:18:46 11/12/2021


  lic: Release hspice token(s) 
 lic: total license checkout elapse time:        0.03(s)
