 ****** HSPICE -- O-2018.09-SP2 win64 (Feb 25 2019) ******                      
  Copyright (c) 1986 - 2021 by Synopsys, Inc. All Rights Reserved.              
  This software and the associated documentation are proprietary
  to Synopsys, Inc. This software may only be used in accordance
  with the terms and conditions of a written license agreement with
  Synopsys, Inc. All other use, reproduction, or distribution of
  this software is strictly prohibited.
  Input File: pelogic.sp                                                        
  Command line options: C:\synopsys\Hspice_O-2018.09-SP2\WIN64\hspice.com -i pelogic.sp -o D:\analogCMOS_lab\task4\pelogic.lis
  Start time: Sat Dec 11 19:44:56 2021
  lic:  
  lic: FLEXlm: SDK_11.7.3 
  lic: USER:   Zz                   HOSTNAME: DESKTOP-GQBECKU 
  lic: HOSTID: d8bbc14f4b4b         PID:      9280 
  lic: Using FLEXlm license file: 
  lic: 27000@DESKTOP-GQBECKU 
  lic: Checkout 1 hspice 
  lic: License/Maintenance for hspice will expire on 30-dec-2029/2019.2019 
  lic: 1(in_use)/99(total) FLOATING license(s) on SERVER 27000@DESKTOP-GQBECKU 
  lic:   
  **info** (pelogic.sp:11) DC voltage reset to initial transient source value in source 0:va. new dc=0.0000D+00
  **warning** (pelogic.sp:7) Capacitance value for element cl is 0.000. Capacitance should be a positive, non-zero value.
  
      

Element variations(Local):   element              parameter
 **info** set option symb=1 internally to help for convergence.
 *****************************************************************
 ******  option summary
 ******
 runlvl  = 3         bypass  = 2.0000    
 **info** dc convergence successful at Newton-Raphson method 
1****** HSPICE -- O-2018.09-SP2 win64 (Feb 25 2019) ******                      
 ******  
 

 ****** operating point information tnom=  25.000 temp=  25.000 ******
 ****** operating point status is voltage   simulation time is     0.     
    node    =voltage      node    =voltage      node    =voltage

 +0:a       =   0.      0:b       =   0.      0:clk     =   0.     
 +0:vdd     =   1.0000  0:x       =  53.3933m 0:y       = 999.9827m
 +0:z       =  15.8640m

 ******
 

 ****** transient analysis tnom=  25.000 temp=  25.000 ******
 thl=   6.0213n
 tlh=   8.0331n

          ***** job concluded
 ******  
 

 ****** job statistics summary tnom=  25.000 temp=  25.000 ******

  ******  HSPICE Threads Information  ******

  Command Line Threads Count :     1
  Available CPU Count        :    12
  Actual Threads Count       :     1


  ******  Circuit Statistics  ******
  # nodes       =      24 # elements   =       9
  # resistors   =       0 # capacitors =       1 # inductors   =       0
  # mutual_inds =       0 # vccs       =       0 # vcvs        =       0
  # cccs        =       0 # ccvs       =       0 # volt_srcs   =       4
  # curr_srcs   =       0 # diodes     =       0 # bjts        =       0
  # jfets       =       0 # mosfets    =       4 # U elements  =       0
  # T elements  =       0 # W elements =       0 # B elements  =       0
  # S elements  =       0 # P elements =       0 # va device   =       0
  # vector_srcs =       0 # N elements =       0


  ******  Runtime Statistics (seconds)  ******

  analysis           time    # points   tot. iter  conv.iter
  op point           0.00           1          18
  transient          0.00       16001         548         233 rev=        16
  readin             0.01
  errchk             0.00
  setup              0.00
  output             0.00


           peak memory used         61.65 megabytes
           total cpu time            0.01 seconds
           total elapsed time        0.03 seconds
           job started at     19:44:56 12/11/2021
           job ended   at     19:44:56 12/11/2021


  **info** (pelogic.sp:11) DC voltage reset to initial transient source value in source 0:va. new dc=0.0000D+00
  
      

Element variations(Local):   element              parameter
 **info** set option symb=1 internally to help for convergence.
 *****************************************************************
 ******  option summary
 ******
 runlvl  = 3         bypass  = 2.0000    
 **info** dc convergence successful at Newton-Raphson method 
 ******  
 

 ****** operating point information tnom=  25.000 temp=  25.000 ******
 ****** operating point status is voltage   simulation time is     0.     
    node    =voltage      node    =voltage      node    =voltage

 +0:a       =   0.      0:b       =   0.      0:clk     =   0.     
 +0:vdd     =   1.0000  0:x       =  53.3933m 0:y       = 999.9827m
 +0:z       =  15.8640m

 ******
 

 ****** transient analysis tnom=  25.000 temp=  25.000 ******
 thl=   6.0265n
 tlh=   8.0440n

          ***** job concluded
 ******  
 

 ****** job statistics summary tnom=  25.000 temp=  25.000 ******

  ******  Circuit Statistics  ******
  # nodes       =      24 # elements   =       9
  # resistors   =       0 # capacitors =       1 # inductors   =       0
  # mutual_inds =       0 # vccs       =       0 # vcvs        =       0
  # cccs        =       0 # ccvs       =       0 # volt_srcs   =       4
  # curr_srcs   =       0 # diodes     =       0 # bjts        =       0
  # jfets       =       0 # mosfets    =       4 # U elements  =       0
  # T elements  =       0 # W elements =       0 # B elements  =       0
  # S elements  =       0 # P elements =       0 # va device   =       0
  # vector_srcs =       0 # N elements =       0


  ******  Runtime Statistics (seconds)  ******

  analysis           time    # points   tot. iter  conv.iter
  op point           0.00           1          18
  transient          0.00       16001         579         246 rev=        31
  readin             0.00
  errchk             0.00
  setup              0.00
  output             0.00


           peak memory used         61.65 megabytes
           total cpu time            0.01 seconds
           total elapsed time        0.02 seconds
           job started at     19:44:56 12/11/2021
           job ended   at     19:44:56 12/11/2021


  lic: Release hspice token(s) 
 lic: total license checkout elapse time:        0.01(s)
