$DATA1 SOURCE='HSPICE' VERSION='O-2018.09-SP2 win64' PARAM_COUNT=0
.TITLE ''
 thl              tlh              temper           alter#          
  1.404e-08          failed          25.0000        1               
