 ****** HSPICE -- O-2018.09-SP2 win64 (Feb 25 2019) ******                      
  Copyright (c) 1986 - 2021 by Synopsys, Inc. All Rights Reserved.              
  This software and the associated documentation are proprietary
  to Synopsys, Inc. This software may only be used in accordance
  with the terms and conditions of a written license agreement with
  Synopsys, Inc. All other use, reproduction, or distribution of
  this software is strictly prohibited.
  Input File: cmosinv.sp                                                        
  Command line options: C:\synopsys\Hspice_O-2018.09-SP2\WIN64\hspice.com -i cmosinv.sp -o C:\sdsy\case4\cmosinv.lis
  Start time: Wed Nov  3 16:51:06 2021
  lic:  
  lic: FLEXlm: SDK_11.7.3 
  lic: USER:   admin                HOSTNAME: DESKTOP-3KO7170 
  lic: HOSTID: "d83bbfb49802"       PID:      52292 
  lic: Using FLEXlm license file: 
  lic: 27000@DESKTOP-3KO7170 
  lic: Checkout 1 hspice 
  lic: License/Maintenance for hspice will expire on 30-dec-2029/2019.2019 
  lic: 1(in_use)/99(total) FLOATING license(s) on SERVER 27000@DESKTOP-3KO7170 
  lic:   
  
      

Element variations(Local):   element              parameter
 *****************************************************************
 ******  option summary
 ******
 runlvl  = 3         bypass  = 2.0000    
 ******
 

 ****** dc transfer curves tnom=  25.000 temp=  25.000 ******
x

 volt         voltage    voltage   
             vin        vout       
    0.          0.       999.9698m 
    1.00000m    1.0000m  999.9694m 
    2.00000m    2.0000m  999.9689m 
    3.00000m    3.0000m  999.9685m 
    4.00000m    4.0000m  999.9680m 
    5.00000m    5.0000m  999.9675m 
    6.00000m    6.0000m  999.9670m 
    7.00000m    7.0000m  999.9665m 
    8.00000m    8.0000m  999.9660m 
    9.00000m    9.0000m  999.9654m 
   10.00000m   10.0000m  999.9649m 
   11.00000m   11.0000m  999.9643m 
   12.00000m   12.0000m  999.9637m 
   13.00000m   13.0000m  999.9630m 
   14.00000m   14.0000m  999.9624m 
   15.00000m   15.0000m  999.9617m 
   16.00000m   16.0000m  999.9610m 
   17.00000m   17.0000m  999.9603m 
   18.00000m   18.0000m  999.9595m 
   19.00000m   19.0000m  999.9587m 
   20.00000m   20.0000m  999.9579m 
   21.00000m   21.0000m  999.9571m 
   22.00000m   22.0000m  999.9563m 
   23.00000m   23.0000m  999.9554m 
   24.00000m   24.0000m  999.9545m 
   25.00000m   25.0000m  999.9535m 
   26.00000m   26.0000m  999.9526m 
   27.00000m   27.0000m  999.9516m 
   28.00000m   28.0000m  999.9505m 
   29.00000m   29.0000m  999.9495m 
   30.00000m   30.0000m  999.9484m 
   31.00000m   31.0000m  999.9472m 
   32.00000m   32.0000m  999.9461m 
   33.00000m   33.0000m  999.9449m 
   34.00000m   34.0000m  999.9436m 
   35.00000m   35.0000m  999.9423m 
   36.00000m   36.0000m  999.9410m 
   37.00000m   37.0000m  999.9396m 
   38.00000m   38.0000m  999.9382m 
   39.00000m   39.0000m  999.9368m 
   40.00000m   40.0000m  999.9353m 
   41.00000m   41.0000m  999.9337m 
   42.00000m   42.0000m  999.9321m 
   43.00000m   43.0000m  999.9305m 
   44.00000m   44.0000m  999.9287m 
   45.00000m   45.0000m  999.9270m 
   46.00000m   46.0000m  999.9252m 
   47.00000m   47.0000m  999.9233m 
   48.00000m   48.0000m  999.9214m 
   49.00000m   49.0000m  999.9194m 
   50.00000m   50.0000m  999.9174m 
   51.00000m   51.0000m  999.9153m 
   52.00000m   52.0000m  999.9131m 
   53.00000m   53.0000m  999.9109m 
   54.00000m   54.0000m  999.9085m 
   55.00000m   55.0000m  999.9062m 
   56.00000m   56.0000m  999.9037m 
   57.00000m   57.0000m  999.9012m 
   58.00000m   58.0000m  999.8986m 
   59.00000m   59.0000m  999.8959m 
   60.00000m   60.0000m  999.8931m 
   61.00000m   61.0000m  999.8903m 
   62.00000m   62.0000m  999.8874m 
   63.00000m   63.0000m  999.8843m 
   64.00000m   64.0000m  999.8812m 
   65.00000m   65.0000m  999.8780m 
   66.00000m   66.0000m  999.8747m 
   67.00000m   67.0000m  999.8713m 
   68.00000m   68.0000m  999.8678m 
   69.00000m   69.0000m  999.8642m 
   70.00000m   70.0000m  999.8605m 
   71.00000m   71.0000m  999.8567m 
   72.00000m   72.0000m  999.8527m 
   73.00000m   73.0000m  999.8487m 
   74.00000m   74.0000m  999.8445m 
   75.00000m   75.0000m  999.8402m 
   76.00000m   76.0000m  999.8357m 
   77.00000m   77.0000m  999.8312m 
   78.00000m   78.0000m  999.8265m 
   79.00000m   79.0000m  999.8216m 
   80.00000m   80.0000m  999.8166m 
   81.00000m   81.0000m  999.8115m 
   82.00000m   82.0000m  999.8062m 
   83.00000m   83.0000m  999.8008m 
   84.00000m   84.0000m  999.7952m 
   85.00000m   85.0000m  999.7895m 
   86.00000m   86.0000m  999.7835m 
   87.00000m   87.0000m  999.7774m 
   88.00000m   88.0000m  999.7712m 
   89.00000m   89.0000m  999.7647m 
   90.00000m   90.0000m  999.7581m 
   91.00000m   91.0000m  999.7512m 
   92.00000m   92.0000m  999.7442m 
   93.00000m   93.0000m  999.7369m 
   94.00000m   94.0000m  999.7295m 
   95.00000m   95.0000m  999.7218m 
   96.00000m   96.0000m  999.7140m 
   97.00000m   97.0000m  999.7058m 
   98.00000m   98.0000m  999.6975m 
   99.00000m   99.0000m  999.6889m 
  100.00000m  100.0000m  999.6801m 
  101.00000m  101.0000m  999.6710m 
  102.00000m  102.0000m  999.6617m 
  103.00000m  103.0000m  999.6521m 
  104.00000m  104.0000m  999.6422m 
  105.00000m  105.0000m  999.6321m 
  106.00000m  106.0000m  999.6216m 
  107.00000m  107.0000m  999.6109m 
  108.00000m  108.0000m  999.5999m 
  109.00000m  109.0000m  999.5885m 
  110.00000m  110.0000m  999.5769m 
  111.00000m  111.0000m  999.5649m 
  112.00000m  112.0000m  999.5526m 
  113.00000m  113.0000m  999.5399m 
  114.00000m  114.0000m  999.5269m 
  115.00000m  115.0000m  999.5135m 
  116.00000m  116.0000m  999.4997m 
  117.00000m  117.0000m  999.4856m 
  118.00000m  118.0000m  999.4711m 
  119.00000m  119.0000m  999.4561m 
  120.00000m  120.0000m  999.4408m 
  121.00000m  121.0000m  999.4250m 
  122.00000m  122.0000m  999.4089m 
  123.00000m  123.0000m  999.3922m 
  124.00000m  124.0000m  999.3751m 
  125.00000m  125.0000m  999.3576m 
  126.00000m  126.0000m  999.3395m 
  127.00000m  127.0000m  999.3210m 
  128.00000m  128.0000m  999.3020m 
  129.00000m  129.0000m  999.2824m 
  130.00000m  130.0000m  999.2624m 
  131.00000m  131.0000m  999.2418m 
  132.00000m  132.0000m  999.2206m 
  133.00000m  133.0000m  999.1989m 
  134.00000m  134.0000m  999.1765m 
  135.00000m  135.0000m  999.1536m 
  136.00000m  136.0000m  999.1301m 
  137.00000m  137.0000m  999.1059m 
  138.00000m  138.0000m  999.0812m 
  139.00000m  139.0000m  999.0557m 
  140.00000m  140.0000m  999.0296m 
  141.00000m  141.0000m  999.0028m 
  142.00000m  142.0000m  998.9753m 
  143.00000m  143.0000m  998.9470m 
  144.00000m  144.0000m  998.9180m 
  145.00000m  145.0000m  998.8883m 
  146.00000m  146.0000m  998.8578m 
  147.00000m  147.0000m  998.8265m 
  148.00000m  148.0000m  998.7943m 
  149.00000m  149.0000m  998.7614m 
  150.00000m  150.0000m  998.7276m 
  151.00000m  151.0000m  998.6929m 
  152.00000m  152.0000m  998.6573m 
  153.00000m  153.0000m  998.6208m 
  154.00000m  154.0000m  998.5834m 
  155.00000m  155.0000m  998.5450m 
  156.00000m  156.0000m  998.5057m 
  157.00000m  157.0000m  998.4653m 
  158.00000m  158.0000m  998.4239m 
  159.00000m  159.0000m  998.3815m 
  160.00000m  160.0000m  998.3380m 
  161.00000m  161.0000m  998.2934m 
  162.00000m  162.0000m  998.2477m 
  163.00000m  163.0000m  998.2008m 
  164.00000m  164.0000m  998.1528m 
  165.00000m  165.0000m  998.1035m 
  166.00000m  166.0000m  998.0530m 
  167.00000m  167.0000m  998.0013m 
  168.00000m  168.0000m  997.9483m 
  169.00000m  169.0000m  997.8940m 
  170.00000m  170.0000m  997.8384m 
  171.00000m  171.0000m  997.7813m 
  172.00000m  172.0000m  997.7229m 
  173.00000m  173.0000m  997.6631m 
  174.00000m  174.0000m  997.6018m 
  175.00000m  175.0000m  997.5390m 
  176.00000m  176.0000m  997.4746m 
  177.00000m  177.0000m  997.4088m 
  178.00000m  178.0000m  997.3413m 
  179.00000m  179.0000m  997.2722m 
  180.00000m  180.0000m  997.2014m 
  181.00000m  181.0000m  997.1290m 
  182.00000m  182.0000m  997.0548m 
  183.00000m  183.0000m  996.9788m 
  184.00000m  184.0000m  996.9011m 
  185.00000m  185.0000m  996.8214m 
  186.00000m  186.0000m  996.7399m 
  187.00000m  187.0000m  996.6565m 
  188.00000m  188.0000m  996.5711m 
  189.00000m  189.0000m  996.4837m 
  190.00000m  190.0000m  996.3943m 
  191.00000m  191.0000m  996.3028m 
  192.00000m  192.0000m  996.2091m 
  193.00000m  193.0000m  996.1133m 
  194.00000m  194.0000m  996.0152m 
  195.00000m  195.0000m  995.9149m 
  196.00000m  196.0000m  995.8122m 
  197.00000m  197.0000m  995.7072m 
  198.00000m  198.0000m  995.5998m 
  199.00000m  199.0000m  995.4899m 
  200.00000m  200.0000m  995.3775m 
  201.00000m  201.0000m  995.2626m 
  202.00000m  202.0000m  995.1450m 
  203.00000m  203.0000m  995.0248m 
  204.00000m  204.0000m  994.9019m 
  205.00000m  205.0000m  994.7762m 
  206.00000m  206.0000m  994.6476m 
  207.00000m  207.0000m  994.5162m 
  208.00000m  208.0000m  994.3818m 
  209.00000m  209.0000m  994.2445m 
  210.00000m  210.0000m  994.1041m 
  211.00000m  211.0000m  993.9605m 
  212.00000m  212.0000m  993.8138m 
  213.00000m  213.0000m  993.6639m 
  214.00000m  214.0000m  993.5106m 
  215.00000m  215.0000m  993.3540m 
  216.00000m  216.0000m  993.1939m 
  217.00000m  217.0000m  993.0304m 
  218.00000m  218.0000m  992.8633m 
  219.00000m  219.0000m  992.6925m 
  220.00000m  220.0000m  992.5180m 
  221.00000m  221.0000m  992.3398m 
  222.00000m  222.0000m  992.1576m 
  223.00000m  223.0000m  991.9716m 
  224.00000m  224.0000m  991.7816m 
  225.00000m  225.0000m  991.5875m 
  226.00000m  226.0000m  991.3892m 
  227.00000m  227.0000m  991.1867m 
  228.00000m  228.0000m  990.9799m 
  229.00000m  229.0000m  990.7687m 
  230.00000m  230.0000m  990.5530m 
  231.00000m  231.0000m  990.3328m 
  232.00000m  232.0000m  990.1079m 
  233.00000m  233.0000m  989.8783m 
  234.00000m  234.0000m  989.6438m 
  235.00000m  235.0000m  989.4044m 
  236.00000m  236.0000m  989.1601m 
  237.00000m  237.0000m  988.9106m 
  238.00000m  238.0000m  988.6559m 
  239.00000m  239.0000m  988.3960m 
  240.00000m  240.0000m  988.1306m 
  241.00000m  241.0000m  987.8598m 
  242.00000m  242.0000m  987.5833m 
  243.00000m  243.0000m  987.3012m 
  244.00000m  244.0000m  987.0133m 
  245.00000m  245.0000m  986.7195m 
  246.00000m  246.0000m  986.4196m 
  247.00000m  247.0000m  986.1136m 
  248.00000m  248.0000m  985.8014m 
  249.00000m  249.0000m  985.4829m 
  250.00000m  250.0000m  985.1578m 
  251.00000m  251.0000m  984.8262m 
  252.00000m  252.0000m  984.4879m 
  253.00000m  253.0000m  984.1427m 
  254.00000m  254.0000m  983.7906m 
  255.00000m  255.0000m  983.4314m 
  256.00000m  256.0000m  983.0649m 
  257.00000m  257.0000m  982.6912m 
  258.00000m  258.0000m  982.3099m 
  259.00000m  259.0000m  981.9211m 
  260.00000m  260.0000m  981.5244m 
  261.00000m  261.0000m  981.1199m 
  262.00000m  262.0000m  980.7074m 
  263.00000m  263.0000m  980.2866m 
  264.00000m  264.0000m  979.8576m 
  265.00000m  265.0000m  979.4200m 
  266.00000m  266.0000m  978.9738m 
  267.00000m  267.0000m  978.5188m 
  268.00000m  268.0000m  978.0548m 
  269.00000m  269.0000m  977.5817m 
  270.00000m  270.0000m  977.0994m 
  271.00000m  271.0000m  976.6075m 
  272.00000m  272.0000m  976.1060m 
  273.00000m  273.0000m  975.5948m 
  274.00000m  274.0000m  975.0735m 
  275.00000m  275.0000m  974.5421m 
  276.00000m  276.0000m  974.0003m 
  277.00000m  277.0000m  973.4479m 
  278.00000m  278.0000m  972.8848m 
  279.00000m  279.0000m  972.3108m 
  280.00000m  280.0000m  971.7257m 
  281.00000m  281.0000m  971.1291m 
  282.00000m  282.0000m  970.5211m 
  283.00000m  283.0000m  969.9012m 
  284.00000m  284.0000m  969.2694m 
  285.00000m  285.0000m  968.6254m 
  286.00000m  286.0000m  967.9689m 
  287.00000m  287.0000m  967.2997m 
  288.00000m  288.0000m  966.6177m 
  289.00000m  289.0000m  965.9225m 
  290.00000m  290.0000m  965.2139m 
  291.00000m  291.0000m  964.4916m 
  292.00000m  292.0000m  963.7554m 
  293.00000m  293.0000m  963.0050m 
  294.00000m  294.0000m  962.2402m 
  295.00000m  295.0000m  961.4607m 
  296.00000m  296.0000m  960.6661m 
  297.00000m  297.0000m  959.8562m 
  298.00000m  298.0000m  959.0308m 
  299.00000m  299.0000m  958.1894m 
  300.00000m  300.0000m  957.3318m 
  301.00000m  301.0000m  956.4577m 
  302.00000m  302.0000m  955.5667m 
  303.00000m  303.0000m  954.6585m 
  304.00000m  304.0000m  953.7327m 
  305.00000m  305.0000m  952.7891m 
  306.00000m  306.0000m  951.8272m 
  307.00000m  307.0000m  950.8466m 
  308.00000m  308.0000m  949.8470m 
  309.00000m  309.0000m  948.8280m 
  310.00000m  310.0000m  947.7891m 
  311.00000m  311.0000m  946.7301m 
  312.00000m  312.0000m  945.6503m 
  313.00000m  313.0000m  944.5494m 
  314.00000m  314.0000m  943.4269m 
  315.00000m  315.0000m  942.2824m 
  316.00000m  316.0000m  941.1153m 
  317.00000m  317.0000m  939.9252m 
  318.00000m  318.0000m  938.7115m 
  319.00000m  319.0000m  937.4738m 
  320.00000m  320.0000m  936.2114m 
  321.00000m  321.0000m  934.9237m 
  322.00000m  322.0000m  933.6103m 
  323.00000m  323.0000m  932.2704m 
  324.00000m  324.0000m  930.9034m 
  325.00000m  325.0000m  929.5087m 
  326.00000m  326.0000m  928.0856m 
  327.00000m  327.0000m  926.6334m 
  328.00000m  328.0000m  925.1513m 
  329.00000m  329.0000m  923.6385m 
  330.00000m  330.0000m  922.0943m 
  331.00000m  331.0000m  920.5178m 
  332.00000m  332.0000m  918.9081m 
  333.00000m  333.0000m  917.2644m 
  334.00000m  334.0000m  915.5856m 
  335.00000m  335.0000m  913.8708m 
  336.00000m  336.0000m  912.1189m 
  337.00000m  337.0000m  910.3288m 
  338.00000m  338.0000m  908.4994m 
  339.00000m  339.0000m  906.6294m 
  340.00000m  340.0000m  904.7176m 
  341.00000m  341.0000m  902.7627m 
  342.00000m  342.0000m  900.7632m 
  343.00000m  343.0000m  898.7176m 
  344.00000m  344.0000m  896.6244m 
  345.00000m  345.0000m  894.4819m 
  346.00000m  346.0000m  892.2886m 
  347.00000m  347.0000m  890.0424m 
  348.00000m  348.0000m  887.7414m 
  349.00000m  349.0000m  885.3834m 
  350.00000m  350.0000m  882.9663m 
  351.00000m  351.0000m  880.4875m 
  352.00000m  352.0000m  877.9446m 
  353.00000m  353.0000m  875.3347m 
  354.00000m  354.0000m  872.6548m 
  355.00000m  355.0000m  869.9017m 
  356.00000m  356.0000m  867.0721m 
  357.00000m  357.0000m  864.1621m 
  358.00000m  358.0000m  861.1676m 
  359.00000m  359.0000m  858.0844m 
  360.00000m  360.0000m  854.9076m 
  361.00000m  361.0000m  851.6321m 
  362.00000m  362.0000m  848.2520m 
  363.00000m  363.0000m  844.7613m 
  364.00000m  364.0000m  841.1530m 
  365.00000m  365.0000m  837.4196m 
  366.00000m  366.0000m  833.5527m 
  367.00000m  367.0000m  829.5433m 
  368.00000m  368.0000m  825.3810m 
  369.00000m  369.0000m  821.0546m 
  370.00000m  370.0000m  816.5515m 
  371.00000m  371.0000m  811.8576m 
  372.00000m  372.0000m  806.9575m 
  373.00000m  373.0000m  801.8339m 
  374.00000m  374.0000m  796.4674m 
  375.00000m  375.0000m  790.8371m 
  376.00000m  376.0000m  784.9196m 
  377.00000m  377.0000m  778.6900m 
  378.00000m  378.0000m  772.1215m 
  379.00000m  379.0000m  765.1867m 
  380.00000m  380.0000m  757.8581m 
  381.00000m  381.0000m  750.1098m 
  382.00000m  382.0000m  741.9199m 
  383.00000m  383.0000m  733.2724m 
  384.00000m  384.0000m  724.1602m 
  385.00000m  385.0000m  714.5867m 
  386.00000m  386.0000m  704.5668m 
  387.00000m  387.0000m  694.1261m 
  388.00000m  388.0000m  683.2986m 
  389.00000m  389.0000m  672.1239m 
  390.00000m  390.0000m  660.6434m 
  391.00000m  391.0000m  648.8978m 
  392.00000m  392.0000m  636.9249m 
  393.00000m  393.0000m  624.7584m 
  394.00000m  394.0000m  612.4280m 
  395.00000m  395.0000m  599.9592m 
  396.00000m  396.0000m  587.3739m 
  397.00000m  397.0000m  574.6906m 
  398.00000m  398.0000m  561.9256m 
  399.00000m  399.0000m  549.0926m 
  400.00000m  400.0000m  536.2041m 
  401.00000m  401.0000m  523.2710m 
  402.00000m  402.0000m  510.3031m 
  403.00000m  403.0000m  497.3095m 
  404.00000m  404.0000m  484.2987m 
  405.00000m  405.0000m  471.2788m 
  406.00000m  406.0000m  458.2576m 
  407.00000m  407.0000m  445.2426m 
  408.00000m  408.0000m  432.2413m 
  409.00000m  409.0000m  419.2612m 
  410.00000m  410.0000m  406.3102m 
  411.00000m  411.0000m  393.3961m 
  412.00000m  412.0000m  380.5270m 
  413.00000m  413.0000m  367.7118m 
  414.00000m  414.0000m  354.9596m 
  415.00000m  415.0000m  342.2804m 
  416.00000m  416.0000m  329.6849m 
  417.00000m  417.0000m  317.1848m 
  418.00000m  418.0000m  304.7931m 
  419.00000m  419.0000m  292.5242m 
  420.00000m  420.0000m  280.3942m 
  421.00000m  421.0000m  268.4211m 
  422.00000m  422.0000m  256.6254m 
  423.00000m  423.0000m  245.0301m 
  424.00000m  424.0000m  233.6615m 
  425.00000m  425.0000m  222.5493m 
  426.00000m  426.0000m  211.7270m 
  427.00000m  427.0000m  201.2322m 
  428.00000m  428.0000m  191.1057m 
  429.00000m  429.0000m  181.3917m 
  430.00000m  430.0000m  172.1352m 
  431.00000m  431.0000m  163.3791m 
  432.00000m  432.0000m  155.1612m 
  433.00000m  433.0000m  147.5088m 
  434.00000m  434.0000m  140.4352m 
  435.00000m  435.0000m  133.9375m 
  436.00000m  436.0000m  127.9965m 
  437.00000m  437.0000m  122.5796m 
  438.00000m  438.0000m  117.6450m 
  439.00000m  439.0000m  113.1467m 
  440.00000m  440.0000m  109.0376m 
  441.00000m  441.0000m  105.2731m 
  442.00000m  442.0000m  101.8119m 
  443.00000m  443.0000m   98.6178m 
  444.00000m  444.0000m   95.6586m 
  445.00000m  445.0000m   92.9065m 
  446.00000m  446.0000m   90.3375m 
  447.00000m  447.0000m   87.9311m 
  448.00000m  448.0000m   85.6697m 
  449.00000m  449.0000m   83.5380m 
  450.00000m  450.0000m   81.5230m 
  451.00000m  451.0000m   79.6134m 
  452.00000m  452.0000m   77.7992m 
  453.00000m  453.0000m   76.0720m 
  454.00000m  454.0000m   74.4241m 
  455.00000m  455.0000m   72.8491m 
  456.00000m  456.0000m   71.3410m 
  457.00000m  457.0000m   69.8947m 
  458.00000m  458.0000m   68.5056m 
  459.00000m  459.0000m   67.1696m 
  460.00000m  460.0000m   65.8830m 
  461.00000m  461.0000m   64.6425m 
  462.00000m  462.0000m   63.4450m 
  463.00000m  463.0000m   62.2879m 
  464.00000m  464.0000m   61.1688m 
  465.00000m  465.0000m   60.0853m 
  466.00000m  466.0000m   59.0354m 
  467.00000m  467.0000m   58.0173m 
  468.00000m  468.0000m   57.0293m 
  469.00000m  469.0000m   56.0696m 
  470.00000m  470.0000m   55.1370m 
  471.00000m  471.0000m   54.2300m 
  472.00000m  472.0000m   53.3474m 
  473.00000m  473.0000m   52.4880m 
  474.00000m  474.0000m   51.6508m 
  475.00000m  475.0000m   50.8347m 
  476.00000m  476.0000m   50.0388m 
  477.00000m  477.0000m   49.2622m 
  478.00000m  478.0000m   48.5042m 
  479.00000m  479.0000m   47.7639m 
  480.00000m  480.0000m   47.0406m 
  481.00000m  481.0000m   46.3336m 
  482.00000m  482.0000m   45.6424m 
  483.00000m  483.0000m   44.9663m 
  484.00000m  484.0000m   44.3047m 
  485.00000m  485.0000m   43.6572m 
  486.00000m  486.0000m   43.0231m 
  487.00000m  487.0000m   42.4020m 
  488.00000m  488.0000m   41.7936m 
  489.00000m  489.0000m   41.1972m 
  490.00000m  490.0000m   40.6126m 
  491.00000m  491.0000m   40.0393m 
  492.00000m  492.0000m   39.4770m 
  493.00000m  493.0000m   38.9253m 
  494.00000m  494.0000m   38.3839m 
  495.00000m  495.0000m   37.8525m 
  496.00000m  496.0000m   37.3307m 
  497.00000m  497.0000m   36.8183m 
  498.00000m  498.0000m   36.3150m 
  499.00000m  499.0000m   35.8205m 
  500.00000m  500.0000m   35.3346m 
  501.00000m  501.0000m   34.8570m 
  502.00000m  502.0000m   34.3876m 
  503.00000m  503.0000m   33.9260m 
  504.00000m  504.0000m   33.4720m 
  505.00000m  505.0000m   33.0255m 
  506.00000m  506.0000m   32.5863m 
  507.00000m  507.0000m   32.1541m 
  508.00000m  508.0000m   31.7289m 
  509.00000m  509.0000m   31.3103m 
  510.00000m  510.0000m   30.8983m 
  511.00000m  511.0000m   30.4926m 
  512.00000m  512.0000m   30.0932m 
  513.00000m  513.0000m   29.6999m 
  514.00000m  514.0000m   29.3124m 
  515.00000m  515.0000m   28.9308m 
  516.00000m  516.0000m   28.5548m 
  517.00000m  517.0000m   28.1844m 
  518.00000m  518.0000m   27.8193m 
  519.00000m  519.0000m   27.4596m 
  520.00000m  520.0000m   27.1050m 
  521.00000m  521.0000m   26.7554m 
  522.00000m  522.0000m   26.4108m 
  523.00000m  523.0000m   26.0710m 
  524.00000m  524.0000m   25.7359m 
  525.00000m  525.0000m   25.4055m 
  526.00000m  526.0000m   25.0796m 
  527.00000m  527.0000m   24.7582m 
  528.00000m  528.0000m   24.4411m 
  529.00000m  529.0000m   24.1282m 
  530.00000m  530.0000m   23.8196m 
  531.00000m  531.0000m   23.5151m 
  532.00000m  532.0000m   23.2145m 
  533.00000m  533.0000m   22.9179m 
  534.00000m  534.0000m   22.6252m 
  535.00000m  535.0000m   22.3363m 
  536.00000m  536.0000m   22.0511m 
  537.00000m  537.0000m   21.7696m 
  538.00000m  538.0000m   21.4917m 
  539.00000m  539.0000m   21.2173m 
  540.00000m  540.0000m   20.9463m 
  541.00000m  541.0000m   20.6788m 
  542.00000m  542.0000m   20.4146m 
  543.00000m  543.0000m   20.1537m 
  544.00000m  544.0000m   19.8960m 
  545.00000m  545.0000m   19.6415m 
  546.00000m  546.0000m   19.3902m 
  547.00000m  547.0000m   19.1419m 
  548.00000m  548.0000m   18.8966m 
  549.00000m  549.0000m   18.6543m 
  550.00000m  550.0000m   18.4150m 
  551.00000m  551.0000m   18.1785m 
  552.00000m  552.0000m   17.9449m 
  553.00000m  553.0000m   17.7141m 
  554.00000m  554.0000m   17.4860m 
  555.00000m  555.0000m   17.2606m 
  556.00000m  556.0000m   17.0379m 
  557.00000m  557.0000m   16.8178m 
  558.00000m  558.0000m   16.6003m 
  559.00000m  559.0000m   16.3854m 
  560.00000m  560.0000m   16.1730m 
  561.00000m  561.0000m   15.9631m 
  562.00000m  562.0000m   15.7556m 
  563.00000m  563.0000m   15.5505m 
  564.00000m  564.0000m   15.3478m 
  565.00000m  565.0000m   15.1475m 
  566.00000m  566.0000m   14.9495m 
  567.00000m  567.0000m   14.7538m 
  568.00000m  568.0000m   14.5603m 
  569.00000m  569.0000m   14.3690m 
  570.00000m  570.0000m   14.1800m 
  571.00000m  571.0000m   13.9931m 
  572.00000m  572.0000m   13.8084m 
  573.00000m  573.0000m   13.6257m 
  574.00000m  574.0000m   13.4452m 
  575.00000m  575.0000m   13.2667m 
  576.00000m  576.0000m   13.0903m 
  577.00000m  577.0000m   12.9158m 
  578.00000m  578.0000m   12.7434m 
  579.00000m  579.0000m   12.5729m 
  580.00000m  580.0000m   12.4044m 
  581.00000m  581.0000m   12.2378m 
  582.00000m  582.0000m   12.0731m 
  583.00000m  583.0000m   11.9102m 
  584.00000m  584.0000m   11.7492m 
  585.00000m  585.0000m   11.5901m 
  586.00000m  586.0000m   11.4328m 
  587.00000m  587.0000m   11.2772m 
  588.00000m  588.0000m   11.1234m 
  589.00000m  589.0000m   10.9714m 
  590.00000m  590.0000m   10.8211m 
  591.00000m  591.0000m   10.6726m 
  592.00000m  592.0000m   10.5257m 
  593.00000m  593.0000m   10.3805m 
  594.00000m  594.0000m   10.2369m 
  595.00000m  595.0000m   10.0951m 
  596.00000m  596.0000m    9.9548m 
  597.00000m  597.0000m    9.8161m 
  598.00000m  598.0000m    9.6791m 
  599.00000m  599.0000m    9.5436m 
  600.00000m  600.0000m    9.4097m 
  601.00000m  601.0000m    9.2773m 
  602.00000m  602.0000m    9.1465m 
  603.00000m  603.0000m    9.0172m 
  604.00000m  604.0000m    8.8893m 
  605.00000m  605.0000m    8.7630m 
  606.00000m  606.0000m    8.6381m 
  607.00000m  607.0000m    8.5147m 
  608.00000m  608.0000m    8.3928m 
  609.00000m  609.0000m    8.2722m 
  610.00000m  610.0000m    8.1531m 
  611.00000m  611.0000m    8.0354m 
  612.00000m  612.0000m    7.9191m 
  613.00000m  613.0000m    7.8041m 
  614.00000m  614.0000m    7.6906m 
  615.00000m  615.0000m    7.5783m 
  616.00000m  616.0000m    7.4674m 
  617.00000m  617.0000m    7.3578m 
  618.00000m  618.0000m    7.2496m 
  619.00000m  619.0000m    7.1426m 
  620.00000m  620.0000m    7.0369m 
  621.00000m  621.0000m    6.9325m 
  622.00000m  622.0000m    6.8294m 
  623.00000m  623.0000m    6.7275m 
  624.00000m  624.0000m    6.6269m 
  625.00000m  625.0000m    6.5275m 
  626.00000m  626.0000m    6.4293m 
  627.00000m  627.0000m    6.3323m 
  628.00000m  628.0000m    6.2365m 
  629.00000m  629.0000m    6.1419m 
  630.00000m  630.0000m    6.0485m 
  631.00000m  631.0000m    5.9562m 
  632.00000m  632.0000m    5.8651m 
  633.00000m  633.0000m    5.7752m 
  634.00000m  634.0000m    5.6863m 
  635.00000m  635.0000m    5.5986m 
  636.00000m  636.0000m    5.5120m 
  637.00000m  637.0000m    5.4265m 
  638.00000m  638.0000m    5.3421m 
  639.00000m  639.0000m    5.2588m 
  640.00000m  640.0000m    5.1765m 
  641.00000m  641.0000m    5.0953m 
  642.00000m  642.0000m    5.0151m 
  643.00000m  643.0000m    4.9360m 
  644.00000m  644.0000m    4.8580m 
  645.00000m  645.0000m    4.7809m 
  646.00000m  646.0000m    4.7048m 
  647.00000m  647.0000m    4.6298m 
  648.00000m  648.0000m    4.5557m 
  649.00000m  649.0000m    4.4827m 
  650.00000m  650.0000m    4.4106m 
  651.00000m  651.0000m    4.3394m 
  652.00000m  652.0000m    4.2693m 
  653.00000m  653.0000m    4.2000m 
  654.00000m  654.0000m    4.1317m 
  655.00000m  655.0000m    4.0644m 
  656.00000m  656.0000m    3.9979m 
  657.00000m  657.0000m    3.9324m 
  658.00000m  658.0000m    3.8677m 
  659.00000m  659.0000m    3.8040m 
  660.00000m  660.0000m    3.7411m 
  661.00000m  661.0000m    3.6791m 
  662.00000m  662.0000m    3.6180m 
  663.00000m  663.0000m    3.5577m 
  664.00000m  664.0000m    3.4982m 
  665.00000m  665.0000m    3.4396m 
  666.00000m  666.0000m    3.3819m 
  667.00000m  667.0000m    3.3249m 
  668.00000m  668.0000m    3.2688m 
  669.00000m  669.0000m    3.2135m 
  670.00000m  670.0000m    3.1589m 
  671.00000m  671.0000m    3.1052m 
  672.00000m  672.0000m    3.0522m 
  673.00000m  673.0000m    3.0000m 
  674.00000m  674.0000m    2.9486m 
  675.00000m  675.0000m    2.8979m 
  676.00000m  676.0000m    2.8479m 
  677.00000m  677.0000m    2.7987m 
  678.00000m  678.0000m    2.7502m 
  679.00000m  679.0000m    2.7025m 
  680.00000m  680.0000m    2.6554m 
  681.00000m  681.0000m    2.6091m 
  682.00000m  682.0000m    2.5635m 
  683.00000m  683.0000m    2.5185m 
  684.00000m  684.0000m    2.4742m 
  685.00000m  685.0000m    2.4306m 
  686.00000m  686.0000m    2.3877m 
  687.00000m  687.0000m    2.3454m 
  688.00000m  688.0000m    2.3038m 
  689.00000m  689.0000m    2.2628m 
  690.00000m  690.0000m    2.2224m 
  691.00000m  691.0000m    2.1827m 
  692.00000m  692.0000m    2.1436m 
  693.00000m  693.0000m    2.1051m 
  694.00000m  694.0000m    2.0672m 
  695.00000m  695.0000m    2.0299m 
  696.00000m  696.0000m    1.9931m 
  697.00000m  697.0000m    1.9570m 
  698.00000m  698.0000m    1.9214m 
  699.00000m  699.0000m    1.8865m 
  700.00000m  700.0000m    1.8520m 
  701.00000m  701.0000m    1.8181m 
  702.00000m  702.0000m    1.7848m 
  703.00000m  703.0000m    1.7520m 
  704.00000m  704.0000m    1.7198m 
  705.00000m  705.0000m    1.6880m 
  706.00000m  706.0000m    1.6568m 
  707.00000m  707.0000m    1.6261m 
  708.00000m  708.0000m    1.5959m 
  709.00000m  709.0000m    1.5662m 
  710.00000m  710.0000m    1.5370m 
  711.00000m  711.0000m    1.5082m 
  712.00000m  712.0000m    1.4800m 
  713.00000m  713.0000m    1.4522m 
  714.00000m  714.0000m    1.4249m 
  715.00000m  715.0000m    1.3980m 
  716.00000m  716.0000m    1.3716m 
  717.00000m  717.0000m    1.3456m 
  718.00000m  718.0000m    1.3201m 
  719.00000m  719.0000m    1.2950m 
  720.00000m  720.0000m    1.2704m 
  721.00000m  721.0000m    1.2461m 
  722.00000m  722.0000m    1.2223m 
  723.00000m  723.0000m    1.1989m 
  724.00000m  724.0000m    1.1759m 
  725.00000m  725.0000m    1.1532m 
  726.00000m  726.0000m    1.1310m 
  727.00000m  727.0000m    1.1092m 
  728.00000m  728.0000m    1.0877m 
  729.00000m  729.0000m    1.0666m 
  730.00000m  730.0000m    1.0459m 
  731.00000m  731.0000m    1.0256m 
  732.00000m  732.0000m    1.0056m 
  733.00000m  733.0000m  985.9256u 
  734.00000m  734.0000m  966.6326u 
  735.00000m  735.0000m  947.6819u 
  736.00000m  736.0000m  929.0683u 
  737.00000m  737.0000m  910.7865u 
  738.00000m  738.0000m  892.8315u 
  739.00000m  739.0000m  875.1983u 
  740.00000m  740.0000m  857.8819u 
  741.00000m  741.0000m  840.8774u 
  742.00000m  742.0000m  824.1799u 
  743.00000m  743.0000m  807.7846u 
  744.00000m  744.0000m  791.6867u 
  745.00000m  745.0000m  775.8816u 
  746.00000m  746.0000m  760.3647u 
  747.00000m  747.0000m  745.1312u 
  748.00000m  748.0000m  730.1768u 
  749.00000m  749.0000m  715.4970u 
  750.00000m  750.0000m  701.0873u 
  751.00000m  751.0000m  686.9433u 
  752.00000m  752.0000m  673.0609u 
  753.00000m  753.0000m  659.4357u 
  754.00000m  754.0000m  646.0635u 
  755.00000m  755.0000m  632.9402u 
  756.00000m  756.0000m  620.0618u 
  757.00000m  757.0000m  607.4241u 
  758.00000m  758.0000m  595.0232u 
  759.00000m  759.0000m  582.8552u 
  760.00000m  760.0000m  570.9163u 
  761.00000m  761.0000m  559.2025u 
  762.00000m  762.0000m  547.7101u 
  763.00000m  763.0000m  536.4354u 
  764.00000m  764.0000m  525.3747u 
  765.00000m  765.0000m  514.5245u 
  766.00000m  766.0000m  503.8811u 
  767.00000m  767.0000m  493.4411u 
  768.00000m  768.0000m  483.2009u 
  769.00000m  769.0000m  473.1572u 
  770.00000m  770.0000m  463.3065u 
  771.00000m  771.0000m  453.6457u 
  772.00000m  772.0000m  444.1713u 
  773.00000m  773.0000m  434.8802u 
  774.00000m  774.0000m  425.7692u 
  775.00000m  775.0000m  416.8352u 
  776.00000m  776.0000m  408.0750u 
  777.00000m  777.0000m  399.4857u 
  778.00000m  778.0000m  391.0642u 
  779.00000m  779.0000m  382.8076u 
  780.00000m  780.0000m  374.7130u 
  781.00000m  781.0000m  366.7775u 
  782.00000m  782.0000m  358.9983u 
  783.00000m  783.0000m  351.3727u 
  784.00000m  784.0000m  343.8979u 
  785.00000m  785.0000m  336.5712u 
  786.00000m  786.0000m  329.3899u 
  787.00000m  787.0000m  322.3515u 
  788.00000m  788.0000m  315.4534u 
  789.00000m  789.0000m  308.6931u 
  790.00000m  790.0000m  302.0680u 
  791.00000m  791.0000m  295.5757u 
  792.00000m  792.0000m  289.2139u 
  793.00000m  793.0000m  282.9801u 
  794.00000m  794.0000m  276.8719u 
  795.00000m  795.0000m  270.8872u 
  796.00000m  796.0000m  265.0237u 
  797.00000m  797.0000m  259.2790u 
  798.00000m  798.0000m  253.6511u 
  799.00000m  799.0000m  248.1378u 
  800.00000m  800.0000m  242.7369u 
  801.00000m  801.0000m  237.4465u 
  802.00000m  802.0000m  232.2643u 
  803.00000m  803.0000m  227.1884u 
  804.00000m  804.0000m  222.2169u 
  805.00000m  805.0000m  217.3478u 
  806.00000m  806.0000m  212.5791u 
  807.00000m  807.0000m  207.9090u 
  808.00000m  808.0000m  203.3356u 
  809.00000m  809.0000m  198.8571u 
  810.00000m  810.0000m  194.4717u 
  811.00000m  811.0000m  190.1776u 
  812.00000m  812.0000m  185.9732u 
  813.00000m  813.0000m  181.8566u 
  814.00000m  814.0000m  177.8263u 
  815.00000m  815.0000m  173.8805u 
  816.00000m  816.0000m  170.0177u 
  817.00000m  817.0000m  166.2363u 
  818.00000m  818.0000m  162.5347u 
  819.00000m  819.0000m  158.9113u 
  820.00000m  820.0000m  155.3647u 
  821.00000m  821.0000m  151.8933u 
  822.00000m  822.0000m  148.4958u 
  823.00000m  823.0000m  145.1706u 
  824.00000m  824.0000m  141.9164u 
  825.00000m  825.0000m  138.7318u 
  826.00000m  826.0000m  135.6154u 
  827.00000m  827.0000m  132.5658u 
  828.00000m  828.0000m  129.5819u 
  829.00000m  829.0000m  126.6622u 
  830.00000m  830.0000m  123.8055u 
  831.00000m  831.0000m  121.0106u 
  832.00000m  832.0000m  118.2762u 
  833.00000m  833.0000m  115.6012u 
  834.00000m  834.0000m  112.9843u 
  835.00000m  835.0000m  110.4244u 
  836.00000m  836.0000m  107.9204u 
  837.00000m  837.0000m  105.4711u 
  838.00000m  838.0000m  103.0755u 
  839.00000m  839.0000m  100.7324u 
  840.00000m  840.0000m   98.4409u 
  841.00000m  841.0000m   96.1998u 
  842.00000m  842.0000m   94.0081u 
  843.00000m  843.0000m   91.8650u 
  844.00000m  844.0000m   89.7692u 
  845.00000m  845.0000m   87.7200u 
  846.00000m  846.0000m   85.7163u 
  847.00000m  847.0000m   83.7573u 
  848.00000m  848.0000m   81.8419u 
  849.00000m  849.0000m   79.9694u 
  850.00000m  850.0000m   78.1387u 
  851.00000m  851.0000m   76.3492u 
  852.00000m  852.0000m   74.5998u 
  853.00000m  853.0000m   72.8899u 
  854.00000m  854.0000m   71.2185u 
  855.00000m  855.0000m   69.5849u 
  856.00000m  856.0000m   67.9882u 
  857.00000m  857.0000m   66.4278u 
  858.00000m  858.0000m   64.9028u 
  859.00000m  859.0000m   63.4125u 
  860.00000m  860.0000m   61.9562u 
  861.00000m  861.0000m   60.5332u 
  862.00000m  862.0000m   59.1428u 
  863.00000m  863.0000m   57.7842u 
  864.00000m  864.0000m   56.4568u 
  865.00000m  865.0000m   55.1599u 
  866.00000m  866.0000m   53.8930u 
  867.00000m  867.0000m   52.6553u 
  868.00000m  868.0000m   51.4463u 
  869.00000m  869.0000m   50.2652u 
  870.00000m  870.0000m   49.1116u 
  871.00000m  871.0000m   47.9848u 
  872.00000m  872.0000m   46.8843u 
  873.00000m  873.0000m   45.8095u 
  874.00000m  874.0000m   44.7598u 
  875.00000m  875.0000m   43.7346u 
  876.00000m  876.0000m   42.7336u 
  877.00000m  877.0000m   41.7561u 
  878.00000m  878.0000m   40.8016u 
  879.00000m  879.0000m   39.8696u 
  880.00000m  880.0000m   38.9597u 
  881.00000m  881.0000m   38.0713u 
  882.00000m  882.0000m   37.2040u 
  883.00000m  883.0000m   36.3573u 
  884.00000m  884.0000m   35.5308u 
  885.00000m  885.0000m   34.7240u 
  886.00000m  886.0000m   33.9364u 
  887.00000m  887.0000m   33.1677u 
  888.00000m  888.0000m   32.4175u 
  889.00000m  889.0000m   31.6853u 
  890.00000m  890.0000m   30.9707u 
  891.00000m  891.0000m   30.2733u 
  892.00000m  892.0000m   29.5928u 
  893.00000m  893.0000m   28.9288u 
  894.00000m  894.0000m   28.2808u 
  895.00000m  895.0000m   27.6486u 
  896.00000m  896.0000m   27.0318u 
  897.00000m  897.0000m   26.4300u 
  898.00000m  898.0000m   25.8430u 
  899.00000m  899.0000m   25.2703u 
  900.00000m  900.0000m   24.7116u 
  901.00000m  901.0000m   24.1667u 
  902.00000m  902.0000m   23.6351u 
  903.00000m  903.0000m   23.1167u 
  904.00000m  904.0000m   22.6111u 
  905.00000m  905.0000m   22.1180u 
  906.00000m  906.0000m   21.6371u 
  907.00000m  907.0000m   21.1682u 
  908.00000m  908.0000m   20.7110u 
  909.00000m  909.0000m   20.2652u 
  910.00000m  910.0000m   19.8305u 
  911.00000m  911.0000m   19.4067u 
  912.00000m  912.0000m   18.9935u 
  913.00000m  913.0000m   18.5907u 
  914.00000m  914.0000m   18.1981u 
  915.00000m  915.0000m   17.8154u 
  916.00000m  916.0000m   17.4423u 
  917.00000m  917.0000m   17.0788u 
  918.00000m  918.0000m   16.7244u 
  919.00000m  919.0000m   16.3791u 
  920.00000m  920.0000m   16.0426u 
  921.00000m  921.0000m   15.7147u 
  922.00000m  922.0000m   15.3952u 
  923.00000m  923.0000m   15.0839u 
  924.00000m  924.0000m   14.7806u 
  925.00000m  925.0000m   14.4851u 
  926.00000m  926.0000m   14.1973u 
  927.00000m  927.0000m   13.9170u 
  928.00000m  928.0000m   13.6439u 
  929.00000m  929.0000m   13.3779u 
  930.00000m  930.0000m   13.1189u 
  931.00000m  931.0000m   12.8666u 
  932.00000m  932.0000m   12.6210u 
  933.00000m  933.0000m   12.3818u 
  934.00000m  934.0000m   12.1490u 
  935.00000m  935.0000m   11.9223u 
  936.00000m  936.0000m   11.7015u 
  937.00000m  937.0000m   11.4867u 
  938.00000m  938.0000m   11.2776u 
  939.00000m  939.0000m   11.0741u 
  940.00000m  940.0000m   10.8760u 
  941.00000m  941.0000m   10.6832u 
  942.00000m  942.0000m   10.4957u 
  943.00000m  943.0000m   10.3132u 
  944.00000m  944.0000m   10.1356u 
  945.00000m  945.0000m    9.9629u 
  946.00000m  946.0000m    9.7949u 
  947.00000m  947.0000m    9.6315u 
  948.00000m  948.0000m    9.4725u 
  949.00000m  949.0000m    9.3180u 
  950.00000m  950.0000m    9.1677u 
  951.00000m  951.0000m    9.0216u 
  952.00000m  952.0000m    8.8796u 
  953.00000m  953.0000m    8.7415u 
  954.00000m  954.0000m    8.6073u 
  955.00000m  955.0000m    8.4769u 
  956.00000m  956.0000m    8.3501u 
  957.00000m  957.0000m    8.2270u 
  958.00000m  958.0000m    8.1073u 
  959.00000m  959.0000m    7.9911u 
  960.00000m  960.0000m    7.8782u 
  961.00000m  961.0000m    7.7686u 
  962.00000m  962.0000m    7.6622u 
  963.00000m  963.0000m    7.5588u 
  964.00000m  964.0000m    7.4585u 
  965.00000m  965.0000m    7.3612u 
  966.00000m  966.0000m    7.2667u 
  967.00000m  967.0000m    7.1750u 
  968.00000m  968.0000m    7.0860u 
  969.00000m  969.0000m    6.9998u 
  970.00000m  970.0000m    6.9161u 
  971.00000m  971.0000m    6.8350u 
  972.00000m  972.0000m    6.7563u 
  973.00000m  973.0000m    6.6801u 
  974.00000m  974.0000m    6.6062u 
  975.00000m  975.0000m    6.5347u 
  976.00000m  976.0000m    6.4653u 
  977.00000m  977.0000m    6.3982u 
  978.00000m  978.0000m    6.3332u 
  979.00000m  979.0000m    6.2703u 
  980.00000m  980.0000m    6.2094u 
  981.00000m  981.0000m    6.1505u 
  982.00000m  982.0000m    6.0935u 
  983.00000m  983.0000m    6.0384u 
  984.00000m  984.0000m    5.9852u 
  985.00000m  985.0000m    5.9337u 
  986.00000m  986.0000m    5.8840u 
  987.00000m  987.0000m    5.8360u 
  988.00000m  988.0000m    5.7896u 
  989.00000m  989.0000m    5.7449u 
  990.00000m  990.0000m    5.7018u 
  991.00000m  991.0000m    5.6602u 
  992.00000m  992.0000m    5.6201u 
  993.00000m  993.0000m    5.5815u 
  994.00000m  994.0000m    5.5443u 
  995.00000m  995.0000m    5.5085u 
  996.00000m  996.0000m    5.4741u 
  997.00000m  997.0000m    5.4410u 
  998.00000m  998.0000m    5.4092u 
  999.00000m  999.0000m    5.3787u 
    1.00000     1.0000     5.3494u 
y

          ***** job concluded
1****** HSPICE -- O-2018.09-SP2 win64 (Feb 25 2019) ******                      
 ******  
 

 ****** job statistics summary tnom=  25.000 temp=  25.000 ******

  ******  HSPICE Threads Information  ******

  Command Line Threads Count :     1
  Available CPU Count        :     8
  Actual Threads Count       :     1


  ******  Circuit Statistics  ******
  # nodes       =      12 # elements   =       4
  # resistors   =       0 # capacitors =       0 # inductors   =       0
  # mutual_inds =       0 # vccs       =       0 # vcvs        =       0
  # cccs        =       0 # ccvs       =       0 # volt_srcs   =       2
  # curr_srcs   =       0 # diodes     =       0 # bjts        =       0
  # jfets       =       0 # mosfets    =       2 # U elements  =       0
  # T elements  =       0 # W elements =       0 # B elements  =       0
  # S elements  =       0 # P elements =       0 # va device   =       0
  # vector_srcs =       0 # N elements =       0


  ******  Runtime Statistics (seconds)  ******

  analysis           time    # points   tot. iter  conv.iter
  op point           0.00           1           0
  dc sweep           0.06        1001        2022
  readin             0.01
  errchk             0.00
  setup              0.00
  output             0.00


           peak memory used         61.70 megabytes
           total cpu time            0.08 seconds
           total elapsed time        0.10 seconds
           job started at     16:51:06 11/03/2021
           job ended   at     16:51:06 11/03/2021


  
      

Element variations(Local):   element              parameter
 *****************************************************************
 ******  option summary
 ******
 runlvl  = 3         bypass  = 2.0000    
 ******
 

 ****** dc transfer curves tnom=  25.000 temp=  25.000 ******
x

 volt         voltage    voltage   
             vin        vout       
    0.          0.       999.9604m 
    1.00000m    1.0000m  999.9597m 
    2.00000m    2.0000m  999.9591m 
    3.00000m    3.0000m  999.9584m 
    4.00000m    4.0000m  999.9576m 
    5.00000m    5.0000m  999.9569m 
    6.00000m    6.0000m  999.9561m 
    7.00000m    7.0000m  999.9553m 
    8.00000m    8.0000m  999.9545m 
    9.00000m    9.0000m  999.9536m 
   10.00000m   10.0000m  999.9527m 
   11.00000m   11.0000m  999.9518m 
   12.00000m   12.0000m  999.9509m 
   13.00000m   13.0000m  999.9499m 
   14.00000m   14.0000m  999.9489m 
   15.00000m   15.0000m  999.9479m 
   16.00000m   16.0000m  999.9468m 
   17.00000m   17.0000m  999.9457m 
   18.00000m   18.0000m  999.9445m 
   19.00000m   19.0000m  999.9434m 
   20.00000m   20.0000m  999.9421m 
   21.00000m   21.0000m  999.9409m 
   22.00000m   22.0000m  999.9396m 
   23.00000m   23.0000m  999.9382m 
   24.00000m   24.0000m  999.9368m 
   25.00000m   25.0000m  999.9354m 
   26.00000m   26.0000m  999.9339m 
   27.00000m   27.0000m  999.9324m 
   28.00000m   28.0000m  999.9308m 
   29.00000m   29.0000m  999.9292m 
   30.00000m   30.0000m  999.9275m 
   31.00000m   31.0000m  999.9258m 
   32.00000m   32.0000m  999.9240m 
   33.00000m   33.0000m  999.9222m 
   34.00000m   34.0000m  999.9203m 
   35.00000m   35.0000m  999.9183m 
   36.00000m   36.0000m  999.9163m 
   37.00000m   37.0000m  999.9142m 
   38.00000m   38.0000m  999.9121m 
   39.00000m   39.0000m  999.9099m 
   40.00000m   40.0000m  999.9076m 
   41.00000m   41.0000m  999.9053m 
   42.00000m   42.0000m  999.9028m 
   43.00000m   43.0000m  999.9003m 
   44.00000m   44.0000m  999.8978m 
   45.00000m   45.0000m  999.8951m 
   46.00000m   46.0000m  999.8924m 
   47.00000m   47.0000m  999.8895m 
   48.00000m   48.0000m  999.8866m 
   49.00000m   49.0000m  999.8836m 
   50.00000m   50.0000m  999.8805m 
   51.00000m   51.0000m  999.8773m 
   52.00000m   52.0000m  999.8740m 
   53.00000m   53.0000m  999.8707m 
   54.00000m   54.0000m  999.8672m 
   55.00000m   55.0000m  999.8636m 
   56.00000m   56.0000m  999.8599m 
   57.00000m   57.0000m  999.8561m 
   58.00000m   58.0000m  999.8521m 
   59.00000m   59.0000m  999.8481m 
   60.00000m   60.0000m  999.8439m 
   61.00000m   61.0000m  999.8396m 
   62.00000m   62.0000m  999.8352m 
   63.00000m   63.0000m  999.8306m 
   64.00000m   64.0000m  999.8259m 
   65.00000m   65.0000m  999.8210m 
   66.00000m   66.0000m  999.8161m 
   67.00000m   67.0000m  999.8109m 
   68.00000m   68.0000m  999.8056m 
   69.00000m   69.0000m  999.8002m 
   70.00000m   70.0000m  999.7946m 
   71.00000m   71.0000m  999.7888m 
   72.00000m   72.0000m  999.7828m 
   73.00000m   73.0000m  999.7767m 
   74.00000m   74.0000m  999.7704m 
   75.00000m   75.0000m  999.7639m 
   76.00000m   76.0000m  999.7572m 
   77.00000m   77.0000m  999.7503m 
   78.00000m   78.0000m  999.7432m 
   79.00000m   79.0000m  999.7359m 
   80.00000m   80.0000m  999.7284m 
   81.00000m   81.0000m  999.7207m 
   82.00000m   82.0000m  999.7127m 
   83.00000m   83.0000m  999.7045m 
   84.00000m   84.0000m  999.6961m 
   85.00000m   85.0000m  999.6874m 
   86.00000m   86.0000m  999.6785m 
   87.00000m   87.0000m  999.6693m 
   88.00000m   88.0000m  999.6598m 
   89.00000m   89.0000m  999.6501m 
   90.00000m   90.0000m  999.6401m 
   91.00000m   91.0000m  999.6298m 
   92.00000m   92.0000m  999.6192m 
   93.00000m   93.0000m  999.6083m 
   94.00000m   94.0000m  999.5970m 
   95.00000m   95.0000m  999.5855m 
   96.00000m   96.0000m  999.5736m 
   97.00000m   97.0000m  999.5614m 
   98.00000m   98.0000m  999.5488m 
   99.00000m   99.0000m  999.5359m 
  100.00000m  100.0000m  999.5226m 
  101.00000m  101.0000m  999.5089m 
  102.00000m  102.0000m  999.4949m 
  103.00000m  103.0000m  999.4804m 
  104.00000m  104.0000m  999.4655m 
  105.00000m  105.0000m  999.4502m 
  106.00000m  106.0000m  999.4345m 
  107.00000m  107.0000m  999.4183m 
  108.00000m  108.0000m  999.4017m 
  109.00000m  109.0000m  999.3846m 
  110.00000m  110.0000m  999.3671m 
  111.00000m  111.0000m  999.3490m 
  112.00000m  112.0000m  999.3304m 
  113.00000m  113.0000m  999.3114m 
  114.00000m  114.0000m  999.2917m 
  115.00000m  115.0000m  999.2716m 
  116.00000m  116.0000m  999.2509m 
  117.00000m  117.0000m  999.2296m 
  118.00000m  118.0000m  999.2077m 
  119.00000m  119.0000m  999.1852m 
  120.00000m  120.0000m  999.1621m 
  121.00000m  121.0000m  999.1384m 
  122.00000m  122.0000m  999.1140m 
  123.00000m  123.0000m  999.0889m 
  124.00000m  124.0000m  999.0632m 
  125.00000m  125.0000m  999.0367m 
  126.00000m  126.0000m  999.0096m 
  127.00000m  127.0000m  998.9817m 
  128.00000m  128.0000m  998.9530m 
  129.00000m  129.0000m  998.9236m 
  130.00000m  130.0000m  998.8934m 
  131.00000m  131.0000m  998.8623m 
  132.00000m  132.0000m  998.8305m 
  133.00000m  133.0000m  998.7977m 
  134.00000m  134.0000m  998.7641m 
  135.00000m  135.0000m  998.7296m 
  136.00000m  136.0000m  998.6942m 
  137.00000m  137.0000m  998.6578m 
  138.00000m  138.0000m  998.6205m 
  139.00000m  139.0000m  998.5821m 
  140.00000m  140.0000m  998.5428m 
  141.00000m  141.0000m  998.5024m 
  142.00000m  142.0000m  998.4610m 
  143.00000m  143.0000m  998.4185m 
  144.00000m  144.0000m  998.3748m 
  145.00000m  145.0000m  998.3300m 
  146.00000m  146.0000m  998.2841m 
  147.00000m  147.0000m  998.2369m 
  148.00000m  148.0000m  998.1885m 
  149.00000m  149.0000m  998.1389m 
  150.00000m  150.0000m  998.0880m 
  151.00000m  151.0000m  998.0358m 
  152.00000m  152.0000m  997.9822m 
  153.00000m  153.0000m  997.9272m 
  154.00000m  154.0000m  997.8709m 
  155.00000m  155.0000m  997.8131m 
  156.00000m  156.0000m  997.7538m 
  157.00000m  157.0000m  997.6930m 
  158.00000m  158.0000m  997.6307m 
  159.00000m  159.0000m  997.5668m 
  160.00000m  160.0000m  997.5013m 
  161.00000m  161.0000m  997.4341m 
  162.00000m  162.0000m  997.3652m 
  163.00000m  163.0000m  997.2946m 
  164.00000m  164.0000m  997.2223m 
  165.00000m  165.0000m  997.1481m 
  166.00000m  166.0000m  997.0721m 
  167.00000m  167.0000m  996.9942m 
  168.00000m  168.0000m  996.9144m 
  169.00000m  169.0000m  996.8326m 
  170.00000m  170.0000m  996.7487m 
  171.00000m  171.0000m  996.6629m 
  172.00000m  172.0000m  996.5749m 
  173.00000m  173.0000m  996.4847m 
  174.00000m  174.0000m  996.3924m 
  175.00000m  175.0000m  996.2977m 
  176.00000m  176.0000m  996.2008m 
  177.00000m  177.0000m  996.1016m 
  178.00000m  178.0000m  995.9999m 
  179.00000m  179.0000m  995.8958m 
  180.00000m  180.0000m  995.7892m 
  181.00000m  181.0000m  995.6800m 
  182.00000m  182.0000m  995.5683m 
  183.00000m  183.0000m  995.4538m 
  184.00000m  184.0000m  995.3366m 
  185.00000m  185.0000m  995.2167m 
  186.00000m  186.0000m  995.0938m 
  187.00000m  187.0000m  994.9681m 
  188.00000m  188.0000m  994.8394m 
  189.00000m  189.0000m  994.7077m 
  190.00000m  190.0000m  994.5729m 
  191.00000m  191.0000m  994.4350m 
  192.00000m  192.0000m  994.2938m 
  193.00000m  193.0000m  994.1493m 
  194.00000m  194.0000m  994.0015m 
  195.00000m  195.0000m  993.8503m 
  196.00000m  196.0000m  993.6955m 
  197.00000m  197.0000m  993.5372m 
  198.00000m  198.0000m  993.3752m 
  199.00000m  199.0000m  993.2096m 
  200.00000m  200.0000m  993.0401m 
  201.00000m  201.0000m  992.8668m 
  202.00000m  202.0000m  992.6895m 
  203.00000m  203.0000m  992.5082m 
  204.00000m  204.0000m  992.3227m 
  205.00000m  205.0000m  992.1331m 
  206.00000m  206.0000m  991.9392m 
  207.00000m  207.0000m  991.7410m 
  208.00000m  208.0000m  991.5383m 
  209.00000m  209.0000m  991.3310m 
  210.00000m  210.0000m  991.1191m 
  211.00000m  211.0000m  990.9026m 
  212.00000m  212.0000m  990.6811m 
  213.00000m  213.0000m  990.4548m 
  214.00000m  214.0000m  990.2235m 
  215.00000m  215.0000m  989.9870m 
  216.00000m  216.0000m  989.7454m 
  217.00000m  217.0000m  989.4984m 
  218.00000m  218.0000m  989.2461m 
  219.00000m  219.0000m  988.9882m 
  220.00000m  220.0000m  988.7247m 
  221.00000m  221.0000m  988.4554m 
  222.00000m  222.0000m  988.1803m 
  223.00000m  223.0000m  987.8992m 
  224.00000m  224.0000m  987.6121m 
  225.00000m  225.0000m  987.3187m 
  226.00000m  226.0000m  987.0191m 
  227.00000m  227.0000m  986.7129m 
  228.00000m  228.0000m  986.4003m 
  229.00000m  229.0000m  986.0809m 
  230.00000m  230.0000m  985.7547m 
  231.00000m  231.0000m  985.4216m 
  232.00000m  232.0000m  985.0814m 
  233.00000m  233.0000m  984.7340m 
  234.00000m  234.0000m  984.3792m 
  235.00000m  235.0000m  984.0169m 
  236.00000m  236.0000m  983.6469m 
  237.00000m  237.0000m  983.2692m 
  238.00000m  238.0000m  982.8835m 
  239.00000m  239.0000m  982.4898m 
  240.00000m  240.0000m  982.0878m 
  241.00000m  241.0000m  981.6774m 
  242.00000m  242.0000m  981.2584m 
  243.00000m  243.0000m  980.8307m 
  244.00000m  244.0000m  980.3941m 
  245.00000m  245.0000m  979.9484m 
  246.00000m  246.0000m  979.4936m 
  247.00000m  247.0000m  979.0293m 
  248.00000m  248.0000m  978.5554m 
  249.00000m  249.0000m  978.0717m 
  250.00000m  250.0000m  977.5781m 
  251.00000m  251.0000m  977.0743m 
  252.00000m  252.0000m  976.5602m 
  253.00000m  253.0000m  976.0356m 
  254.00000m  254.0000m  975.5002m 
  255.00000m  255.0000m  974.9538m 
  256.00000m  256.0000m  974.3963m 
  257.00000m  257.0000m  973.8274m 
  258.00000m  258.0000m  973.2470m 
  259.00000m  259.0000m  972.6547m 
  260.00000m  260.0000m  972.0504m 
  261.00000m  261.0000m  971.4338m 
  262.00000m  262.0000m  970.8047m 
  263.00000m  263.0000m  970.1628m 
  264.00000m  264.0000m  969.5080m 
  265.00000m  265.0000m  968.8399m 
  266.00000m  266.0000m  968.1583m 
  267.00000m  267.0000m  967.4629m 
  268.00000m  268.0000m  966.7535m 
  269.00000m  269.0000m  966.0298m 
  270.00000m  270.0000m  965.2915m 
  271.00000m  271.0000m  964.5383m 
  272.00000m  272.0000m  963.7699m 
  273.00000m  273.0000m  962.9860m 
  274.00000m  274.0000m  962.1864m 
  275.00000m  275.0000m  961.3707m 
  276.00000m  276.0000m  960.5385m 
  277.00000m  277.0000m  959.6896m 
  278.00000m  278.0000m  958.8236m 
  279.00000m  279.0000m  957.9402m 
  280.00000m  280.0000m  957.0389m 
  281.00000m  281.0000m  956.1196m 
  282.00000m  282.0000m  955.1816m 
  283.00000m  283.0000m  954.2248m 
  284.00000m  284.0000m  953.2487m 
  285.00000m  285.0000m  952.2529m 
  286.00000m  286.0000m  951.2369m 
  287.00000m  287.0000m  950.2004m 
  288.00000m  288.0000m  949.1429m 
  289.00000m  289.0000m  948.0640m 
  290.00000m  290.0000m  946.9631m 
  291.00000m  291.0000m  945.8399m 
  292.00000m  292.0000m  944.6938m 
  293.00000m  293.0000m  943.5244m 
  294.00000m  294.0000m  942.3310m 
  295.00000m  295.0000m  941.1133m 
  296.00000m  296.0000m  939.8705m 
  297.00000m  297.0000m  938.6022m 
  298.00000m  298.0000m  937.3078m 
  299.00000m  299.0000m  935.9865m 
  300.00000m  300.0000m  934.6380m 
  301.00000m  301.0000m  933.2613m 
  302.00000m  302.0000m  931.8560m 
  303.00000m  303.0000m  930.4212m 
  304.00000m  304.0000m  928.9564m 
  305.00000m  305.0000m  927.4606m 
  306.00000m  306.0000m  925.9332m 
  307.00000m  307.0000m  924.3733m 
  308.00000m  308.0000m  922.7800m 
  309.00000m  309.0000m  921.1526m 
  310.00000m  310.0000m  919.4901m 
  311.00000m  311.0000m  917.7915m 
  312.00000m  312.0000m  916.0559m 
  313.00000m  313.0000m  914.2822m 
  314.00000m  314.0000m  912.4693m 
  315.00000m  315.0000m  910.6162m 
  316.00000m  316.0000m  908.7216m 
  317.00000m  317.0000m  906.7842m 
  318.00000m  318.0000m  904.8029m 
  319.00000m  319.0000m  902.7761m 
  320.00000m  320.0000m  900.7026m 
  321.00000m  321.0000m  898.5807m 
  322.00000m  322.0000m  896.4089m 
  323.00000m  323.0000m  894.1854m 
  324.00000m  324.0000m  891.9086m 
  325.00000m  325.0000m  889.5766m 
  326.00000m  326.0000m  887.1872m 
  327.00000m  327.0000m  884.7385m 
  328.00000m  328.0000m  882.2282m 
  329.00000m  329.0000m  879.6538m 
  330.00000m  330.0000m  877.0129m 
  331.00000m  331.0000m  874.3027m 
  332.00000m  332.0000m  871.5202m 
  333.00000m  333.0000m  868.6624m 
  334.00000m  334.0000m  865.7259m 
  335.00000m  335.0000m  862.7070m 
  336.00000m  336.0000m  859.6019m 
  337.00000m  337.0000m  856.4063m 
  338.00000m  338.0000m  853.1158m 
  339.00000m  339.0000m  849.7252m 
  340.00000m  340.0000m  846.2293m 
  341.00000m  341.0000m  842.6221m 
  342.00000m  342.0000m  838.8972m 
  343.00000m  343.0000m  835.0475m 
  344.00000m  344.0000m  831.0654m 
  345.00000m  345.0000m  826.9425m 
  346.00000m  346.0000m  822.6695m 
  347.00000m  347.0000m  818.2359m 
  348.00000m  348.0000m  813.6303m 
  349.00000m  349.0000m  808.8398m 
  350.00000m  350.0000m  803.8504m 
  351.00000m  351.0000m  798.6463m 
  352.00000m  352.0000m  793.2100m 
  353.00000m  353.0000m  787.5221m 
  354.00000m  354.0000m  781.5614m 
  355.00000m  355.0000m  775.3046m 
  356.00000m  356.0000m  768.7263m 
  357.00000m  357.0000m  761.7999m 
  358.00000m  358.0000m  754.4973m 
  359.00000m  359.0000m  746.7911m 
  360.00000m  360.0000m  738.6550m 
  361.00000m  361.0000m  730.0667m 
  362.00000m  362.0000m  721.0102m 
  363.00000m  363.0000m  711.4784m 
  364.00000m  364.0000m  701.4749m 
  365.00000m  365.0000m  691.0158m 
  366.00000m  366.0000m  680.1279m 
  367.00000m  367.0000m  668.8474m 
  368.00000m  368.0000m  657.2161m 
  369.00000m  369.0000m  645.2777m 
  370.00000m  370.0000m  633.0748m 
  371.00000m  371.0000m  620.6473m 
  372.00000m  372.0000m  608.0303m 
  373.00000m  373.0000m  595.2546m 
  374.00000m  374.0000m  582.3467m 
  375.00000m  375.0000m  569.3289m 
  376.00000m  376.0000m  556.2206m 
  377.00000m  377.0000m  543.0380m 
  378.00000m  378.0000m  529.7956m 
  379.00000m  379.0000m  516.5058m 
  380.00000m  380.0000m  503.1799m 
  381.00000m  381.0000m  489.8278m 
  382.00000m  382.0000m  476.4590m 
  383.00000m  383.0000m  463.0822m 
  384.00000m  384.0000m  449.7057m 
  385.00000m  385.0000m  436.3375m 
  386.00000m  386.0000m  422.9857m 
  387.00000m  387.0000m  409.6580m 
  388.00000m  388.0000m  396.3626m 
  389.00000m  389.0000m  383.1077m 
  390.00000m  390.0000m  369.9017m 
  391.00000m  391.0000m  356.7537m 
  392.00000m  392.0000m  343.6733m 
  393.00000m  393.0000m  330.6707m 
  394.00000m  394.0000m  317.7572m 
  395.00000m  395.0000m  304.9450m 
  396.00000m  396.0000m  292.2477m 
  397.00000m  397.0000m  279.6805m 
  398.00000m  398.0000m  267.2605m 
  399.00000m  399.0000m  255.0070m 
  400.00000m  400.0000m  242.9422m 
  401.00000m  401.0000m  231.0911m 
  402.00000m  402.0000m  219.4827m 
  403.00000m  403.0000m  208.1502m 
  404.00000m  404.0000m  197.1314m 
  405.00000m  405.0000m  186.4688m 
  406.00000m  406.0000m  176.2099m 
  407.00000m  407.0000m  166.4053m 
  408.00000m  408.0000m  157.1070m 
  409.00000m  409.0000m  148.3641m 
  410.00000m  410.0000m  140.2178m 
  411.00000m  411.0000m  132.6953m 
  412.00000m  412.0000m  125.8054m 
  413.00000m  413.0000m  119.5363m 
  414.00000m  414.0000m  113.8576m 
  415.00000m  415.0000m  108.7248m 
  416.00000m  416.0000m  104.0856m 
  417.00000m  417.0000m   99.8852m 
  418.00000m  418.0000m   96.0704m 
  419.00000m  419.0000m   92.5925m 
  420.00000m  420.0000m   89.4082m 
  421.00000m  421.0000m   86.4796m 
  422.00000m  422.0000m   83.7745m 
  423.00000m  423.0000m   81.2653m 
  424.00000m  424.0000m   78.9283m 
  425.00000m  425.0000m   76.7437m 
  426.00000m  426.0000m   74.6944m 
  427.00000m  427.0000m   72.7661m 
  428.00000m  428.0000m   70.9461m 
  429.00000m  429.0000m   69.2239m 
  430.00000m  430.0000m   67.5901m 
  431.00000m  431.0000m   66.0368m 
  432.00000m  432.0000m   64.5567m 
  433.00000m  433.0000m   63.1439m 
  434.00000m  434.0000m   61.7929m 
  435.00000m  435.0000m   60.4988m 
  436.00000m  436.0000m   59.2573m 
  437.00000m  437.0000m   58.0648m 
  438.00000m  438.0000m   56.9176m 
  439.00000m  439.0000m   55.8128m 
  440.00000m  440.0000m   54.7477m 
  441.00000m  441.0000m   53.7196m 
  442.00000m  442.0000m   52.7263m 
  443.00000m  443.0000m   51.7657m 
  444.00000m  444.0000m   50.8361m 
  445.00000m  445.0000m   49.9355m 
  446.00000m  446.0000m   49.0624m 
  447.00000m  447.0000m   48.2154m 
  448.00000m  448.0000m   47.3931m 
  449.00000m  449.0000m   46.5943m 
  450.00000m  450.0000m   45.8178m 
  451.00000m  451.0000m   45.0625m 
  452.00000m  452.0000m   44.3275m 
  453.00000m  453.0000m   43.6117m 
  454.00000m  454.0000m   42.9145m 
  455.00000m  455.0000m   42.2348m 
  456.00000m  456.0000m   41.5721m 
  457.00000m  457.0000m   40.9255m 
  458.00000m  458.0000m   40.2945m 
  459.00000m  459.0000m   39.6783m 
  460.00000m  460.0000m   39.0764m 
  461.00000m  461.0000m   38.4883m 
  462.00000m  462.0000m   37.9134m 
  463.00000m  463.0000m   37.3512m 
  464.00000m  464.0000m   36.8013m 
  465.00000m  465.0000m   36.2632m 
  466.00000m  466.0000m   35.7365m 
  467.00000m  467.0000m   35.2208m 
  468.00000m  468.0000m   34.7157m 
  469.00000m  469.0000m   34.2208m 
  470.00000m  470.0000m   33.7359m 
  471.00000m  471.0000m   33.2606m 
  472.00000m  472.0000m   32.7946m 
  473.00000m  473.0000m   32.3376m 
  474.00000m  474.0000m   31.8892m 
  475.00000m  475.0000m   31.4494m 
  476.00000m  476.0000m   31.0177m 
  477.00000m  477.0000m   30.5939m 
  478.00000m  478.0000m   30.1779m 
  479.00000m  479.0000m   29.7693m 
  480.00000m  480.0000m   29.3680m 
  481.00000m  481.0000m   28.9738m 
  482.00000m  482.0000m   28.5864m 
  483.00000m  483.0000m   28.2057m 
  484.00000m  484.0000m   27.8315m 
  485.00000m  485.0000m   27.4636m 
  486.00000m  486.0000m   27.1018m 
  487.00000m  487.0000m   26.7460m 
  488.00000m  488.0000m   26.3961m 
  489.00000m  489.0000m   26.0518m 
  490.00000m  490.0000m   25.7131m 
  491.00000m  491.0000m   25.3797m 
  492.00000m  492.0000m   25.0516m 
  493.00000m  493.0000m   24.7287m 
  494.00000m  494.0000m   24.4107m 
  495.00000m  495.0000m   24.0977m 
  496.00000m  496.0000m   23.7894m 
  497.00000m  497.0000m   23.4857m 
  498.00000m  498.0000m   23.1867m 
  499.00000m  499.0000m   22.8920m 
  500.00000m  500.0000m   22.6017m 
  501.00000m  501.0000m   22.3156m 
  502.00000m  502.0000m   22.0337m 
  503.00000m  503.0000m   21.7559m 
  504.00000m  504.0000m   21.4820m 
  505.00000m  505.0000m   21.2120m 
  506.00000m  506.0000m   20.9458m 
  507.00000m  507.0000m   20.6833m 
  508.00000m  508.0000m   20.4245m 
  509.00000m  509.0000m   20.1692m 
  510.00000m  510.0000m   19.9175m 
  511.00000m  511.0000m   19.6691m 
  512.00000m  512.0000m   19.4241m 
  513.00000m  513.0000m   19.1824m 
  514.00000m  514.0000m   18.9439m 
  515.00000m  515.0000m   18.7086m 
  516.00000m  516.0000m   18.4764m 
  517.00000m  517.0000m   18.2472m 
  518.00000m  518.0000m   18.0209m 
  519.00000m  519.0000m   17.7977m 
  520.00000m  520.0000m   17.5772m 
  521.00000m  521.0000m   17.3596m 
  522.00000m  522.0000m   17.1448m 
  523.00000m  523.0000m   16.9327m 
  524.00000m  524.0000m   16.7232m 
  525.00000m  525.0000m   16.5164m 
  526.00000m  526.0000m   16.3121m 
  527.00000m  527.0000m   16.1104m 
  528.00000m  528.0000m   15.9111m 
  529.00000m  529.0000m   15.7143m 
  530.00000m  530.0000m   15.5199m 
  531.00000m  531.0000m   15.3279m 
  532.00000m  532.0000m   15.1381m 
  533.00000m  533.0000m   14.9507m 
  534.00000m  534.0000m   14.7655m 
  535.00000m  535.0000m   14.5825m 
  536.00000m  536.0000m   14.4017m 
  537.00000m  537.0000m   14.2230m 
  538.00000m  538.0000m   14.0465m 
  539.00000m  539.0000m   13.8720m 
  540.00000m  540.0000m   13.6995m 
  541.00000m  541.0000m   13.5291m 
  542.00000m  542.0000m   13.3606m 
  543.00000m  543.0000m   13.1941m 
  544.00000m  544.0000m   13.0295m 
  545.00000m  545.0000m   12.8669m 
  546.00000m  546.0000m   12.7060m 
  547.00000m  547.0000m   12.5471m 
  548.00000m  548.0000m   12.3899m 
  549.00000m  549.0000m   12.2345m 
  550.00000m  550.0000m   12.0809m 
  551.00000m  551.0000m   11.9290m 
  552.00000m  552.0000m   11.7789m 
  553.00000m  553.0000m   11.6304m 
  554.00000m  554.0000m   11.4836m 
  555.00000m  555.0000m   11.3384m 
  556.00000m  556.0000m   11.1949m 
  557.00000m  557.0000m   11.0530m 
  558.00000m  558.0000m   10.9126m 
  559.00000m  559.0000m   10.7738m 
  560.00000m  560.0000m   10.6366m 
  561.00000m  561.0000m   10.5009m 
  562.00000m  562.0000m   10.3667m 
  563.00000m  563.0000m   10.2339m 
  564.00000m  564.0000m   10.1027m 
  565.00000m  565.0000m    9.9729m 
  566.00000m  566.0000m    9.8445m 
  567.00000m  567.0000m    9.7175m 
  568.00000m  568.0000m    9.5920m 
  569.00000m  569.0000m    9.4678m 
  570.00000m  570.0000m    9.3450m 
  571.00000m  571.0000m    9.2235m 
  572.00000m  572.0000m    9.1034m 
  573.00000m  573.0000m    8.9846m 
  574.00000m  574.0000m    8.8671m 
  575.00000m  575.0000m    8.7508m 
  576.00000m  576.0000m    8.6359m 
  577.00000m  577.0000m    8.5222m 
  578.00000m  578.0000m    8.4098m 
  579.00000m  579.0000m    8.2986m 
  580.00000m  580.0000m    8.1886m 
  581.00000m  581.0000m    8.0799m 
  582.00000m  582.0000m    7.9723m 
  583.00000m  583.0000m    7.8659m 
  584.00000m  584.0000m    7.7607m 
  585.00000m  585.0000m    7.6567m 
  586.00000m  586.0000m    7.5538m 
  587.00000m  587.0000m    7.4520m 
  588.00000m  588.0000m    7.3514m 
  589.00000m  589.0000m    7.2518m 
  590.00000m  590.0000m    7.1534m 
  591.00000m  591.0000m    7.0561m 
  592.00000m  592.0000m    6.9598m 
  593.00000m  593.0000m    6.8646m 
  594.00000m  594.0000m    6.7705m 
  595.00000m  595.0000m    6.6775m 
  596.00000m  596.0000m    6.5854m 
  597.00000m  597.0000m    6.4944m 
  598.00000m  598.0000m    6.4045m 
  599.00000m  599.0000m    6.3155m 
  600.00000m  600.0000m    6.2275m 
  601.00000m  601.0000m    6.1406m 
  602.00000m  602.0000m    6.0546m 
  603.00000m  603.0000m    5.9696m 
  604.00000m  604.0000m    5.8855m 
  605.00000m  605.0000m    5.8024m 
  606.00000m  606.0000m    5.7203m 
  607.00000m  607.0000m    5.6391m 
  608.00000m  608.0000m    5.5588m 
  609.00000m  609.0000m    5.4795m 
  610.00000m  610.0000m    5.4010m 
  611.00000m  611.0000m    5.3235m 
  612.00000m  612.0000m    5.2469m 
  613.00000m  613.0000m    5.1711m 
  614.00000m  614.0000m    5.0963m 
  615.00000m  615.0000m    5.0223m 
  616.00000m  616.0000m    4.9492m 
  617.00000m  617.0000m    4.8769m 
  618.00000m  618.0000m    4.8055m 
  619.00000m  619.0000m    4.7350m 
  620.00000m  620.0000m    4.6652m 
  621.00000m  621.0000m    4.5964m 
  622.00000m  622.0000m    4.5283m 
  623.00000m  623.0000m    4.4610m 
  624.00000m  624.0000m    4.3946m 
  625.00000m  625.0000m    4.3289m 
  626.00000m  626.0000m    4.2641m 
  627.00000m  627.0000m    4.2000m 
  628.00000m  628.0000m    4.1368m 
  629.00000m  629.0000m    4.0743m 
  630.00000m  630.0000m    4.0125m 
  631.00000m  631.0000m    3.9515m 
  632.00000m  632.0000m    3.8913m 
  633.00000m  633.0000m    3.8318m 
  634.00000m  634.0000m    3.7731m 
  635.00000m  635.0000m    3.7151m 
  636.00000m  636.0000m    3.6578m 
  637.00000m  637.0000m    3.6012m 
  638.00000m  638.0000m    3.5454m 
  639.00000m  639.0000m    3.4903m 
  640.00000m  640.0000m    3.4358m 
  641.00000m  641.0000m    3.3821m 
  642.00000m  642.0000m    3.3290m 
  643.00000m  643.0000m    3.2767m 
  644.00000m  644.0000m    3.2250m 
  645.00000m  645.0000m    3.1740m 
  646.00000m  646.0000m    3.1236m 
  647.00000m  647.0000m    3.0739m 
  648.00000m  648.0000m    3.0249m 
  649.00000m  649.0000m    2.9765m 
  650.00000m  650.0000m    2.9287m 
  651.00000m  651.0000m    2.8816m 
  652.00000m  652.0000m    2.8351m 
  653.00000m  653.0000m    2.7892m 
  654.00000m  654.0000m    2.7439m 
  655.00000m  655.0000m    2.6993m 
  656.00000m  656.0000m    2.6553m 
  657.00000m  657.0000m    2.6118m 
  658.00000m  658.0000m    2.5690m 
  659.00000m  659.0000m    2.5267m 
  660.00000m  660.0000m    2.4850m 
  661.00000m  661.0000m    2.4439m 
  662.00000m  662.0000m    2.4034m 
  663.00000m  663.0000m    2.3634m 
  664.00000m  664.0000m    2.3240m 
  665.00000m  665.0000m    2.2851m 
  666.00000m  666.0000m    2.2468m 
  667.00000m  667.0000m    2.2090m 
  668.00000m  668.0000m    2.1718m 
  669.00000m  669.0000m    2.1351m 
  670.00000m  670.0000m    2.0989m 
  671.00000m  671.0000m    2.0632m 
  672.00000m  672.0000m    2.0281m 
  673.00000m  673.0000m    1.9934m 
  674.00000m  674.0000m    1.9593m 
  675.00000m  675.0000m    1.9257m 
  676.00000m  676.0000m    1.8925m 
  677.00000m  677.0000m    1.8599m 
  678.00000m  678.0000m    1.8277m 
  679.00000m  679.0000m    1.7960m 
  680.00000m  680.0000m    1.7648m 
  681.00000m  681.0000m    1.7340m 
  682.00000m  682.0000m    1.7037m 
  683.00000m  683.0000m    1.6738m 
  684.00000m  684.0000m    1.6444m 
  685.00000m  685.0000m    1.6155m 
  686.00000m  686.0000m    1.5870m 
  687.00000m  687.0000m    1.5589m 
  688.00000m  688.0000m    1.5313m 
  689.00000m  689.0000m    1.5040m 
  690.00000m  690.0000m    1.4772m 
  691.00000m  691.0000m    1.4508m 
  692.00000m  692.0000m    1.4249m 
  693.00000m  693.0000m    1.3993m 
  694.00000m  694.0000m    1.3741m 
  695.00000m  695.0000m    1.3493m 
  696.00000m  696.0000m    1.3250m 
  697.00000m  697.0000m    1.3010m 
  698.00000m  698.0000m    1.2773m 
  699.00000m  699.0000m    1.2541m 
  700.00000m  700.0000m    1.2312m 
  701.00000m  701.0000m    1.2087m 
  702.00000m  702.0000m    1.1866m 
  703.00000m  703.0000m    1.1648m 
  704.00000m  704.0000m    1.1433m 
  705.00000m  705.0000m    1.1223m 
  706.00000m  706.0000m    1.1015m 
  707.00000m  707.0000m    1.0811m 
  708.00000m  708.0000m    1.0610m 
  709.00000m  709.0000m    1.0413m 
  710.00000m  710.0000m    1.0219m 
  711.00000m  711.0000m    1.0028m 
  712.00000m  712.0000m  984.0163u 
  713.00000m  713.0000m  965.5530u 
  714.00000m  714.0000m  947.3982u 
  715.00000m  715.0000m  929.5476u 
  716.00000m  716.0000m  911.9970u 
  717.00000m  717.0000m  894.7424u 
  718.00000m  718.0000m  877.7795u 
  719.00000m  719.0000m  861.1043u 
  720.00000m  720.0000m  844.7128u 
  721.00000m  721.0000m  828.6009u 
  722.00000m  722.0000m  812.7646u 
  723.00000m  723.0000m  797.2001u 
  724.00000m  724.0000m  781.9033u 
  725.00000m  725.0000m  766.8705u 
  726.00000m  726.0000m  752.0979u 
  727.00000m  727.0000m  737.5816u 
  728.00000m  728.0000m  723.3178u 
  729.00000m  729.0000m  709.3029u 
  730.00000m  730.0000m  695.5333u 
  731.00000m  731.0000m  682.0051u 
  732.00000m  732.0000m  668.7149u 
  733.00000m  733.0000m  655.6591u 
  734.00000m  734.0000m  642.8342u 
  735.00000m  735.0000m  630.2366u 
  736.00000m  736.0000m  617.8629u 
  737.00000m  737.0000m  605.7098u 
  738.00000m  738.0000m  593.7738u 
  739.00000m  739.0000m  582.0515u 
  740.00000m  740.0000m  570.5398u 
  741.00000m  741.0000m  559.2352u 
  742.00000m  742.0000m  548.1347u 
  743.00000m  743.0000m  537.2350u 
  744.00000m  744.0000m  526.5329u 
  745.00000m  745.0000m  516.0254u 
  746.00000m  746.0000m  505.7094u 
  747.00000m  747.0000m  495.5817u 
  748.00000m  748.0000m  485.6396u 
  749.00000m  749.0000m  475.8798u 
  750.00000m  750.0000m  466.2997u 
  751.00000m  751.0000m  456.8961u 
  752.00000m  752.0000m  447.6664u 
  753.00000m  753.0000m  438.6076u 
  754.00000m  754.0000m  429.7169u 
  755.00000m  755.0000m  420.9918u 
  756.00000m  756.0000m  412.4293u 
  757.00000m  757.0000m  404.0269u 
  758.00000m  758.0000m  395.7819u 
  759.00000m  759.0000m  387.6917u 
  760.00000m  760.0000m  379.7537u 
  761.00000m  761.0000m  371.9654u 
  762.00000m  762.0000m  364.3243u 
  763.00000m  763.0000m  356.8279u 
  764.00000m  764.0000m  349.4738u 
  765.00000m  765.0000m  342.2595u 
  766.00000m  766.0000m  335.1828u 
  767.00000m  767.0000m  328.2413u 
  768.00000m  768.0000m  321.4326u 
  769.00000m  769.0000m  314.7545u 
  770.00000m  770.0000m  308.2048u 
  771.00000m  771.0000m  301.7812u 
  772.00000m  772.0000m  295.4817u 
  773.00000m  773.0000m  289.3039u 
  774.00000m  774.0000m  283.2459u 
  775.00000m  775.0000m  277.3056u 
  776.00000m  776.0000m  271.4809u 
  777.00000m  777.0000m  265.7697u 
  778.00000m  778.0000m  260.1702u 
  779.00000m  779.0000m  254.6802u 
  780.00000m  780.0000m  249.2980u 
  781.00000m  781.0000m  244.0216u 
  782.00000m  782.0000m  238.8491u 
  783.00000m  783.0000m  233.7787u 
  784.00000m  784.0000m  228.8086u 
  785.00000m  785.0000m  223.9369u 
  786.00000m  786.0000m  219.1620u 
  787.00000m  787.0000m  214.4820u 
  788.00000m  788.0000m  209.8954u 
  789.00000m  789.0000m  205.4003u 
  790.00000m  790.0000m  200.9952u 
  791.00000m  791.0000m  196.6784u 
  792.00000m  792.0000m  192.4483u 
  793.00000m  793.0000m  188.3033u 
  794.00000m  794.0000m  184.2420u 
  795.00000m  795.0000m  180.2626u 
  796.00000m  796.0000m  176.3639u 
  797.00000m  797.0000m  172.5442u 
  798.00000m  798.0000m  168.8022u 
  799.00000m  799.0000m  165.1363u 
  800.00000m  800.0000m  161.5452u 
  801.00000m  801.0000m  158.0275u 
  802.00000m  802.0000m  154.5819u 
  803.00000m  803.0000m  151.2069u 
  804.00000m  804.0000m  147.9014u 
  805.00000m  805.0000m  144.6639u 
  806.00000m  806.0000m  141.4932u 
  807.00000m  807.0000m  138.3881u 
  808.00000m  808.0000m  135.3472u 
  809.00000m  809.0000m  132.3695u 
  810.00000m  810.0000m  129.4537u 
  811.00000m  811.0000m  126.5987u 
  812.00000m  812.0000m  123.8032u 
  813.00000m  813.0000m  121.0662u 
  814.00000m  814.0000m  118.3865u 
  815.00000m  815.0000m  115.7631u 
  816.00000m  816.0000m  113.1948u 
  817.00000m  817.0000m  110.6806u 
  818.00000m  818.0000m  108.2195u 
  819.00000m  819.0000m  105.8105u 
  820.00000m  820.0000m  103.4525u 
  821.00000m  821.0000m  101.1446u 
  822.00000m  822.0000m   98.8857u 
  823.00000m  823.0000m   96.6750u 
  824.00000m  824.0000m   94.5114u 
  825.00000m  825.0000m   92.3942u 
  826.00000m  826.0000m   90.3223u 
  827.00000m  827.0000m   88.2949u 
  828.00000m  828.0000m   86.3111u 
  829.00000m  829.0000m   84.3700u 
  830.00000m  830.0000m   82.4708u 
  831.00000m  831.0000m   80.6128u 
  832.00000m  832.0000m   78.7949u 
  833.00000m  833.0000m   77.0166u 
  834.00000m  834.0000m   75.2769u 
  835.00000m  835.0000m   73.5751u 
  836.00000m  836.0000m   71.9105u 
  837.00000m  837.0000m   70.2823u 
  838.00000m  838.0000m   68.6898u 
  839.00000m  839.0000m   67.1322u 
  840.00000m  840.0000m   65.6089u 
  841.00000m  841.0000m   64.1192u 
  842.00000m  842.0000m   62.6623u 
  843.00000m  843.0000m   61.2377u 
  844.00000m  844.0000m   59.8446u 
  845.00000m  845.0000m   58.4825u 
  846.00000m  846.0000m   57.1507u 
  847.00000m  847.0000m   55.8485u 
  848.00000m  848.0000m   54.5754u 
  849.00000m  849.0000m   53.3308u 
  850.00000m  850.0000m   52.1140u 
  851.00000m  851.0000m   50.9246u 
  852.00000m  852.0000m   49.7619u 
  853.00000m  853.0000m   48.6254u 
  854.00000m  854.0000m   47.5146u 
  855.00000m  855.0000m   46.4288u 
  856.00000m  856.0000m   45.3677u 
  857.00000m  857.0000m   44.3307u 
  858.00000m  858.0000m   43.3172u 
  859.00000m  859.0000m   42.3269u 
  860.00000m  860.0000m   41.3591u 
  861.00000m  861.0000m   40.4134u 
  862.00000m  862.0000m   39.4895u 
  863.00000m  863.0000m   38.5867u 
  864.00000m  864.0000m   37.7047u 
  865.00000m  865.0000m   36.8430u 
  866.00000m  866.0000m   36.0011u 
  867.00000m  867.0000m   35.1788u 
  868.00000m  868.0000m   34.3754u 
  869.00000m  869.0000m   33.5908u 
  870.00000m  870.0000m   32.8243u 
  871.00000m  871.0000m   32.0757u 
  872.00000m  872.0000m   31.3446u 
  873.00000m  873.0000m   30.6306u 
  874.00000m  874.0000m   29.9332u 
  875.00000m  875.0000m   29.2523u 
  876.00000m  876.0000m   28.5873u 
  877.00000m  877.0000m   27.9380u 
  878.00000m  878.0000m   27.3040u 
  879.00000m  879.0000m   26.6850u 
  880.00000m  880.0000m   26.0807u 
  881.00000m  881.0000m   25.4907u 
  882.00000m  882.0000m   24.9147u 
  883.00000m  883.0000m   24.3524u 
  884.00000m  884.0000m   23.8035u 
  885.00000m  885.0000m   23.2678u 
  886.00000m  886.0000m   22.7449u 
  887.00000m  887.0000m   22.2345u 
  888.00000m  888.0000m   21.7364u 
  889.00000m  889.0000m   21.2503u 
  890.00000m  890.0000m   20.7759u 
  891.00000m  891.0000m   20.3129u 
  892.00000m  892.0000m   19.8612u 
  893.00000m  893.0000m   19.4204u 
  894.00000m  894.0000m   18.9904u 
  895.00000m  895.0000m   18.5708u 
  896.00000m  896.0000m   18.1615u 
  897.00000m  897.0000m   17.7621u 
  898.00000m  898.0000m   17.3726u 
  899.00000m  899.0000m   16.9926u 
  900.00000m  900.0000m   16.6219u 
  901.00000m  901.0000m   16.2604u 
  902.00000m  902.0000m   15.9078u 
  903.00000m  903.0000m   15.5639u 
  904.00000m  904.0000m   15.2286u 
  905.00000m  905.0000m   14.9015u 
  906.00000m  906.0000m   14.5827u 
  907.00000m  907.0000m   14.2717u 
  908.00000m  908.0000m   13.9685u 
  909.00000m  909.0000m   13.6730u 
  910.00000m  910.0000m   13.3848u 
  911.00000m  911.0000m   13.1039u 
  912.00000m  912.0000m   12.8300u 
  913.00000m  913.0000m   12.5631u 
  914.00000m  914.0000m   12.3029u 
  915.00000m  915.0000m   12.0494u 
  916.00000m  916.0000m   11.8022u 
  917.00000m  917.0000m   11.5614u 
  918.00000m  918.0000m   11.3267u 
  919.00000m  919.0000m   11.0980u 
  920.00000m  920.0000m   10.8752u 
  921.00000m  921.0000m   10.6581u 
  922.00000m  922.0000m   10.4466u 
  923.00000m  923.0000m   10.2406u 
  924.00000m  924.0000m   10.0398u 
  925.00000m  925.0000m    9.8443u 
  926.00000m  926.0000m    9.6539u 
  927.00000m  927.0000m    9.4685u 
  928.00000m  928.0000m    9.2879u 
  929.00000m  929.0000m    9.1120u 
  930.00000m  930.0000m    8.9408u 
  931.00000m  931.0000m    8.7740u 
  932.00000m  932.0000m    8.6117u 
  933.00000m  933.0000m    8.4537u 
  934.00000m  934.0000m    8.2998u 
  935.00000m  935.0000m    8.1501u 
  936.00000m  936.0000m    8.0044u 
  937.00000m  937.0000m    7.8625u 
  938.00000m  938.0000m    7.7245u 
  939.00000m  939.0000m    7.5902u 
  940.00000m  940.0000m    7.4596u 
  941.00000m  941.0000m    7.3324u 
  942.00000m  942.0000m    7.2088u 
  943.00000m  943.0000m    7.0885u 
  944.00000m  944.0000m    6.9715u 
  945.00000m  945.0000m    6.8577u 
  946.00000m  946.0000m    6.7471u 
  947.00000m  947.0000m    6.6395u 
  948.00000m  948.0000m    6.5349u 
  949.00000m  949.0000m    6.4333u 
  950.00000m  950.0000m    6.3344u 
  951.00000m  951.0000m    6.2384u 
  952.00000m  952.0000m    6.1451u 
  953.00000m  953.0000m    6.0544u 
  954.00000m  954.0000m    5.9662u 
  955.00000m  955.0000m    5.8807u 
  956.00000m  956.0000m    5.7975u 
  957.00000m  957.0000m    5.7168u 
  958.00000m  958.0000m    5.6384u 
  959.00000m  959.0000m    5.5622u 
  960.00000m  960.0000m    5.4883u 
  961.00000m  961.0000m    5.4166u 
  962.00000m  962.0000m    5.3470u 
  963.00000m  963.0000m    5.2795u 
  964.00000m  964.0000m    5.2139u 
  965.00000m  965.0000m    5.1504u 
  966.00000m  966.0000m    5.0888u 
  967.00000m  967.0000m    5.0290u 
  968.00000m  968.0000m    4.9711u 
  969.00000m  969.0000m    4.9149u 
  970.00000m  970.0000m    4.8605u 
  971.00000m  971.0000m    4.8078u 
  972.00000m  972.0000m    4.7567u 
  973.00000m  973.0000m    4.7072u 
  974.00000m  974.0000m    4.6594u 
  975.00000m  975.0000m    4.6130u 
  976.00000m  976.0000m    4.5682u 
  977.00000m  977.0000m    4.5248u 
  978.00000m  978.0000m    4.4828u 
  979.00000m  979.0000m    4.4423u 
  980.00000m  980.0000m    4.4030u 
  981.00000m  981.0000m    4.3652u 
  982.00000m  982.0000m    4.3286u 
  983.00000m  983.0000m    4.2932u 
  984.00000m  984.0000m    4.2591u 
  985.00000m  985.0000m    4.2262u 
  986.00000m  986.0000m    4.1945u 
  987.00000m  987.0000m    4.1638u 
  988.00000m  988.0000m    4.1344u 
  989.00000m  989.0000m    4.1060u 
  990.00000m  990.0000m    4.0786u 
  991.00000m  991.0000m    4.0523u 
  992.00000m  992.0000m    4.0270u 
  993.00000m  993.0000m    4.0027u 
  994.00000m  994.0000m    3.9793u 
  995.00000m  995.0000m    3.9569u 
  996.00000m  996.0000m    3.9354u 
  997.00000m  997.0000m    3.9148u 
  998.00000m  998.0000m    3.8950u 
  999.00000m  999.0000m    3.8761u 
    1.00000     1.0000     3.8580u 
y

          ***** job concluded
 ******  
 

 ****** job statistics summary tnom=  25.000 temp=  25.000 ******

  ******  Circuit Statistics  ******
  # nodes       =      12 # elements   =       4
  # resistors   =       0 # capacitors =       0 # inductors   =       0
  # mutual_inds =       0 # vccs       =       0 # vcvs        =       0
  # cccs        =       0 # ccvs       =       0 # volt_srcs   =       2
  # curr_srcs   =       0 # diodes     =       0 # bjts        =       0
  # jfets       =       0 # mosfets    =       2 # U elements  =       0
  # T elements  =       0 # W elements =       0 # B elements  =       0
  # S elements  =       0 # P elements =       0 # va device   =       0
  # vector_srcs =       0 # N elements =       0


  ******  Runtime Statistics (seconds)  ******

  analysis           time    # points   tot. iter  conv.iter
  op point           0.00           1           0
  dc sweep           0.05        1001        2025
  readin             0.00
  errchk             0.00
  setup              0.00
  output             0.00


           peak memory used         62.32 megabytes
           total cpu time            0.06 seconds
           total elapsed time        0.08 seconds
           job started at     16:51:06 11/03/2021
           job ended   at     16:51:07 11/03/2021


  
      

Element variations(Local):   element              parameter
 *****************************************************************
 ******  option summary
 ******
 runlvl  = 3         bypass  = 2.0000    
 ******
 

 ****** dc transfer curves tnom=  25.000 temp=  25.000 ******
x

 volt         voltage    voltage   
             vin        vout       
    0.          0.       999.9792m 
    1.00000m    1.0000m  999.9790m 
    2.00000m    2.0000m  999.9788m 
    3.00000m    3.0000m  999.9786m 
    4.00000m    4.0000m  999.9784m 
    5.00000m    5.0000m  999.9782m 
    6.00000m    6.0000m  999.9779m 
    7.00000m    7.0000m  999.9777m 
    8.00000m    8.0000m  999.9774m 
    9.00000m    9.0000m  999.9772m 
   10.00000m   10.0000m  999.9769m 
   11.00000m   11.0000m  999.9766m 
   12.00000m   12.0000m  999.9764m 
   13.00000m   13.0000m  999.9761m 
   14.00000m   14.0000m  999.9758m 
   15.00000m   15.0000m  999.9754m 
   16.00000m   16.0000m  999.9751m 
   17.00000m   17.0000m  999.9748m 
   18.00000m   18.0000m  999.9744m 
   19.00000m   19.0000m  999.9741m 
   20.00000m   20.0000m  999.9737m 
   21.00000m   21.0000m  999.9733m 
   22.00000m   22.0000m  999.9729m 
   23.00000m   23.0000m  999.9725m 
   24.00000m   24.0000m  999.9721m 
   25.00000m   25.0000m  999.9716m 
   26.00000m   26.0000m  999.9711m 
   27.00000m   27.0000m  999.9707m 
   28.00000m   28.0000m  999.9702m 
   29.00000m   29.0000m  999.9697m 
   30.00000m   30.0000m  999.9691m 
   31.00000m   31.0000m  999.9686m 
   32.00000m   32.0000m  999.9680m 
   33.00000m   33.0000m  999.9675m 
   34.00000m   34.0000m  999.9669m 
   35.00000m   35.0000m  999.9662m 
   36.00000m   36.0000m  999.9656m 
   37.00000m   37.0000m  999.9649m 
   38.00000m   38.0000m  999.9642m 
   39.00000m   39.0000m  999.9635m 
   40.00000m   40.0000m  999.9628m 
   41.00000m   41.0000m  999.9621m 
   42.00000m   42.0000m  999.9613m 
   43.00000m   43.0000m  999.9605m 
   44.00000m   44.0000m  999.9597m 
   45.00000m   45.0000m  999.9588m 
   46.00000m   46.0000m  999.9579m 
   47.00000m   47.0000m  999.9570m 
   48.00000m   48.0000m  999.9561m 
   49.00000m   49.0000m  999.9551m 
   50.00000m   50.0000m  999.9541m 
   51.00000m   51.0000m  999.9531m 
   52.00000m   52.0000m  999.9520m 
   53.00000m   53.0000m  999.9510m 
   54.00000m   54.0000m  999.9498m 
   55.00000m   55.0000m  999.9487m 
   56.00000m   56.0000m  999.9475m 
   57.00000m   57.0000m  999.9462m 
   58.00000m   58.0000m  999.9450m 
   59.00000m   59.0000m  999.9436m 
   60.00000m   60.0000m  999.9423m 
   61.00000m   61.0000m  999.9409m 
   62.00000m   62.0000m  999.9395m 
   63.00000m   63.0000m  999.9380m 
   64.00000m   64.0000m  999.9365m 
   65.00000m   65.0000m  999.9349m 
   66.00000m   66.0000m  999.9333m 
   67.00000m   67.0000m  999.9316m 
   68.00000m   68.0000m  999.9299m 
   69.00000m   69.0000m  999.9281m 
   70.00000m   70.0000m  999.9263m 
   71.00000m   71.0000m  999.9244m 
   72.00000m   72.0000m  999.9224m 
   73.00000m   73.0000m  999.9204m 
   74.00000m   74.0000m  999.9184m 
   75.00000m   75.0000m  999.9163m 
   76.00000m   76.0000m  999.9141m 
   77.00000m   77.0000m  999.9118m 
[...]
  485.00000m  485.0000m  116.9595m 
  486.00000m  486.0000m  113.8546m 
  487.00000m  487.0000m  110.9368m 
  488.00000m  488.0000m  108.1868m 
  489.00000m  489.0000m  105.5877m 
  490.00000m  490.0000m  103.1250m 
  491.00000m  491.0000m  100.7858m 
  492.00000m  492.0000m   98.5588m 
  493.00000m  493.0000m   96.4342m 
  494.00000m  494.0000m   94.4033m 
  495.00000m  495.0000m   92.4585m 
  496.00000m  496.0000m   90.5929m 
  497.00000m  497.0000m   88.8005m 
  498.00000m  498.0000m   87.0759m 
  499.00000m  499.0000m   85.4144m 
  500.00000m  500.0000m   83.8115m 
  501.00000m  501.0000m   82.2634m 
  502.00000m  502.0000m   80.7665m 
  503.00000m  503.0000m   79.3178m 
  504.00000m  504.0000m   77.9142m 
  505.00000m  505.0000m   76.5531m 
  506.00000m  506.0000m   75.2322m 
  507.00000m  507.0000m   73.9492m 
  508.00000m  508.0000m   72.7021m 
  509.00000m  509.0000m   71.4890m 
  510.00000m  510.0000m   70.3082m 
  511.00000m  511.0000m   69.1581m 
  512.00000m  512.0000m   68.0373m 
  513.00000m  513.0000m   66.9443m 
  514.00000m  514.0000m   65.8779m 
  515.00000m  515.0000m   64.8370m 
  516.00000m  516.0000m   63.8204m 
  517.00000m  517.0000m   62.8270m 
  518.00000m  518.0000m   61.8560m 
  519.00000m  519.0000m   60.9064m 
  520.00000m  520.0000m   59.9774m 
  521.00000m  521.0000m   59.0682m 
  522.00000m  522.0000m   58.1780m 
  523.00000m  523.0000m   57.3061m 
  524.00000m  524.0000m   56.4519m 
  525.00000m  525.0000m   55.6147m 
  526.00000m  526.0000m   54.7939m 
  527.00000m  527.0000m   53.9890m 
  528.00000m  528.0000m   53.1995m 
  529.00000m  529.0000m   52.4248m 
  530.00000m  530.0000m   51.6644m 
  531.00000m  531.0000m   50.9180m 
  532.00000m  532.0000m   50.1850m 
  533.00000m  533.0000m   49.4651m 
  534.00000m  534.0000m   48.7579m 
  535.00000m  535.0000m   48.0629m 
  536.00000m  536.0000m   47.3799m 
  537.00000m  537.0000m   46.7085m 
  538.00000m  538.0000m   46.0483m 
  539.00000m  539.0000m   45.3991m 
  540.00000m  540.0000m   44.7606m 
  541.00000m  541.0000m   44.1325m 
  542.00000m  542.0000m   43.5144m 
  543.00000m  543.0000m   42.9063m 
  544.00000m  544.0000m   42.3077m 
  545.00000m  545.0000m   41.7184m 
  546.00000m  546.0000m   41.1383m 
  547.00000m  547.0000m   40.5671m 
  548.00000m  548.0000m   40.0046m 
  549.00000m  549.0000m   39.4505m 
  550.00000m  550.0000m   38.9048m 
  551.00000m  551.0000m   38.3671m 
  552.00000m  552.0000m   37.8374m 
  553.00000m  553.0000m   37.3154m 
  554.00000m  554.0000m   36.8010m 
  555.00000m  555.0000m   36.2940m 
  556.00000m  556.0000m   35.7942m 
  557.00000m  557.0000m   35.3016m 
  558.00000m  558.0000m   34.8159m 
  559.00000m  559.0000m   34.3370m 
  560.00000m  560.0000m   33.8647m 
  561.00000m  561.0000m   33.3990m 
  562.00000m  562.0000m   32.9398m 
  563.00000m  563.0000m   32.4868m 
  564.00000m  564.0000m   32.0399m 
  565.00000m  565.0000m   31.5992m 
  566.00000m  566.0000m   31.1643m 
  567.00000m  567.0000m   30.7353m 
  568.00000m  568.0000m   30.3121m 
  569.00000m  569.0000m   29.8944m 
  570.00000m  570.0000m   29.4823m 
  571.00000m  571.0000m   29.0756m 
  572.00000m  572.0000m   28.6742m 
  573.00000m  573.0000m   28.2781m 
  574.00000m  574.0000m   27.8871m 
  575.00000m  575.0000m   27.5012m 
  576.00000m  576.0000m   27.1203m 
  577.00000m  577.0000m   26.7443m 
  578.00000m  578.0000m   26.3731m 
  579.00000m  579.0000m   26.0067m 
  580.00000m  580.0000m   25.6450m 
  581.00000m  581.0000m   25.2878m 
  582.00000m  582.0000m   24.9352m 
  583.00000m  583.0000m   24.5871m 
  584.00000m  584.0000m   24.2434m 
  585.00000m  585.0000m   23.9040m 
  586.00000m  586.0000m   23.5688m 
  587.00000m  587.0000m   23.2379m 
  588.00000m  588.0000m   22.9111m 
  589.00000m  589.0000m   22.5885m 
  590.00000m  590.0000m   22.2698m 
  591.00000m  591.0000m   21.9552m 
  592.00000m  592.0000m   21.6444m 
  593.00000m  593.0000m   21.3376m 
  594.00000m  594.0000m   21.0346m 
  595.00000m  595.0000m   20.7353m 
  596.00000m  596.0000m   20.4397m 
  597.00000m  597.0000m   20.1479m 
  598.00000m  598.0000m   19.8596m 
  599.00000m  599.0000m   19.5749m 
  600.00000m  600.0000m   19.2938m 
  601.00000m  601.0000m   19.0161m 
  602.00000m  602.0000m   18.7419m 
  603.00000m  603.0000m   18.4711m 
  604.00000m  604.0000m   18.2037m 
  605.00000m  605.0000m   17.9396m 
  606.00000m  606.0000m   17.6787m 
  607.00000m  607.0000m   17.4211m 
  608.00000m  608.0000m   17.1667m 
  609.00000m  609.0000m   16.9155m 
  610.00000m  610.0000m   16.6674m 
  611.00000m  611.0000m   16.4224m 
  612.00000m  612.0000m   16.1805m 
  613.00000m  613.0000m   15.9415m 
  614.00000m  614.0000m   15.7056m 
  615.00000m  615.0000m   15.4726m 
  616.00000m  616.0000m   15.2425m 
  617.00000m  617.0000m   15.0154m 
  618.00000m  618.0000m   14.7910m 
  619.00000m  619.0000m   14.5696m 
  620.00000m  620.0000m   14.3508m 
  621.00000m  621.0000m   14.1349m 
  622.00000m  622.0000m   13.9217m 
  623.00000m  623.0000m   13.7112m 
  624.00000m  624.0000m   13.5034m 
  625.00000m  625.0000m   13.2982m 
  626.00000m  626.0000m   13.0956m 
  627.00000m  627.0000m   12.8957m 
  628.00000m  628.0000m   12.6982m 
  629.00000m  629.0000m   12.5034m 
  630.00000m  630.0000m   12.3110m 
  631.00000m  631.0000m   12.1211m 
  632.00000m  632.0000m   11.9337m 
  633.00000m  633.0000m   11.7487m 
  634.00000m  634.0000m   11.5661m 
  635.00000m  635.0000m   11.3859m 
  636.00000m  636.0000m   11.2080m 
  637.00000m  637.0000m   11.0325m 
  638.00000m  638.0000m   10.8592m 
  639.00000m  639.0000m   10.6883m 
  640.00000m  640.0000m   10.5196m 
  641.00000m  641.0000m   10.3531m 
  642.00000m  642.0000m   10.1889m 
  643.00000m  643.0000m   10.0268m 
  644.00000m  644.0000m    9.8670m 
  645.00000m  645.0000m    9.7092m 
  646.00000m  646.0000m    9.5536m 
  647.00000m  647.0000m    9.4001m 
  648.00000m  648.0000m    9.2486m 
  649.00000m  649.0000m    9.0992m 
  650.00000m  650.0000m    8.9518m 
  651.00000m  651.0000m    8.8065m 
  652.00000m  652.0000m    8.6631m 
  653.00000m  653.0000m    8.5217m 
  654.00000m  654.0000m    8.3823m 
  655.00000m  655.0000m    8.2448m 
  656.00000m  656.0000m    8.1092m 
  657.00000m  657.0000m    7.9755m 
  658.00000m  658.0000m    7.8436m 
  659.00000m  659.0000m    7.7136m 
  660.00000m  660.0000m    7.5854m 
  661.00000m  661.0000m    7.4591m 
  662.00000m  662.0000m    7.3345m 
  663.00000m  663.0000m    7.2117m 
  664.00000m  664.0000m    7.0906m 
  665.00000m  665.0000m    6.9713m 
  666.00000m  666.0000m    6.8537m 
  667.00000m  667.0000m    6.7378m 
  668.00000m  668.0000m    6.6235m 
  669.00000m  669.0000m    6.5109m 
  670.00000m  670.0000m    6.4000m 
  671.00000m  671.0000m    6.2907m 
  672.00000m  672.0000m    6.1829m 
  673.00000m  673.0000m    6.0768m 
  674.00000m  674.0000m    5.9722m 
  675.00000m  675.0000m    5.8692m 
  676.00000m  676.0000m    5.7677m 
  677.00000m  677.0000m    5.6677m 
  678.00000m  678.0000m    5.5692m 
  679.00000m  679.0000m    5.4722m 
  680.00000m  680.0000m    5.3766m 
  681.00000m  681.0000m    5.2825m 
  682.00000m  682.0000m    5.1898m 
  683.00000m  683.0000m    5.0985m 
  684.00000m  684.0000m    5.0086m 
  685.00000m  685.0000m    4.9201m 
  686.00000m  686.0000m    4.8330m 
  687.00000m  687.0000m    4.7472m 
  688.00000m  688.0000m    4.6627m 
  689.00000m  689.0000m    4.5795m 
  690.00000m  690.0000m    4.4977m 
  691.00000m  691.0000m    4.4171m 
  692.00000m  692.0000m    4.3377m 
  693.00000m  693.0000m    4.2596m 
  694.00000m  694.0000m    4.1828m 
  695.00000m  695.0000m    4.1072m 
  696.00000m  696.0000m    4.0327m 
  697.00000m  697.0000m    3.9595m 
  698.00000m  698.0000m    3.8874m 
  699.00000m  699.0000m    3.8165m 
  700.00000m  700.0000m    3.7467m 
  701.00000m  701.0000m    3.6780m 
  702.00000m  702.0000m    3.6105m 
  703.00000m  703.0000m    3.5440m 
  704.00000m  704.0000m    3.4787m 
  705.00000m  705.0000m    3.4144m 
  706.00000m  706.0000m    3.3511m 
  707.00000m  707.0000m    3.2889m 
  708.00000m  708.0000m    3.2277m 
  709.00000m  709.0000m    3.1676m 
  710.00000m  710.0000m    3.1084m 
  711.00000m  711.0000m    3.0502m 
  712.00000m  712.0000m    2.9930m 
  713.00000m  713.0000m    2.9367m 
  714.00000m  714.0000m    2.8814m 
  715.00000m  715.0000m    2.8270m 
  716.00000m  716.0000m    2.7736m 
  717.00000m  717.0000m    2.7210m 
  718.00000m  718.0000m    2.6693m 
  719.00000m  719.0000m    2.6186m 
  720.00000m  720.0000m    2.5686m 
  721.00000m  721.0000m    2.5196m 
  722.00000m  722.0000m    2.4713m 
  723.00000m  723.0000m    2.4240m 
  724.00000m  724.0000m    2.3774m 
  725.00000m  725.0000m    2.3316m 
  726.00000m  726.0000m    2.2866m 
  727.00000m  727.0000m    2.2424m 
  728.00000m  728.0000m    2.1990m 
  729.00000m  729.0000m    2.1564m 
  730.00000m  730.0000m    2.1145m 
  731.00000m  731.0000m    2.0733m 
  732.00000m  732.0000m    2.0328m 
  733.00000m  733.0000m    1.9931m 
  734.00000m  734.0000m    1.9541m 
  735.00000m  735.0000m    1.9157m 
  736.00000m  736.0000m    1.8781m 
  737.00000m  737.0000m    1.8411m 
  738.00000m  738.0000m    1.8048m 
  739.00000m  739.0000m    1.7691m 
  740.00000m  740.0000m    1.7341m 
  741.00000m  741.0000m    1.6997m 
  742.00000m  742.0000m    1.6659m 
  743.00000m  743.0000m    1.6328m 
  744.00000m  744.0000m    1.6002m 
  745.00000m  745.0000m    1.5682m 
  746.00000m  746.0000m    1.5369m 
  747.00000m  747.0000m    1.5060m 
  748.00000m  748.0000m    1.4758m 
  749.00000m  749.0000m    1.4461m 
  750.00000m  750.0000m    1.4170m 
  751.00000m  751.0000m    1.3884m 
  752.00000m  752.0000m    1.3603m 
  753.00000m  753.0000m    1.3328m 
  754.00000m  754.0000m    1.3057m 
  755.00000m  755.0000m    1.2792m 
  756.00000m  756.0000m    1.2531m 
  757.00000m  757.0000m    1.2276m 
  758.00000m  758.0000m    1.2025m 
  759.00000m  759.0000m    1.1779m 
  760.00000m  760.0000m    1.1538m 
  761.00000m  761.0000m    1.1301m 
  762.00000m  762.0000m    1.1068m 
  763.00000m  763.0000m    1.0840m 
  764.00000m  764.0000m    1.0617m 
  765.00000m  765.0000m    1.0397m 
  766.00000m  766.0000m    1.0182m 
  767.00000m  767.0000m  997.1176u 
  768.00000m  768.0000m  976.4142u 
  769.00000m  769.0000m  956.1081u 
  770.00000m  770.0000m  936.1925u 
  771.00000m  771.0000m  916.6607u 
  772.00000m  772.0000m  897.5061u 
  773.00000m  773.0000m  878.7221u 
  774.00000m  774.0000m  860.3024u 
  775.00000m  775.0000m  842.2405u 
  776.00000m  776.0000m  824.5302u 
  777.00000m  777.0000m  807.1654u 
  778.00000m  778.0000m  790.1400u 
  779.00000m  779.0000m  773.4481u 
  780.00000m  780.0000m  757.0836u 
  781.00000m  781.0000m  741.0410u 
  782.00000m  782.0000m  725.3144u 
  783.00000m  783.0000m  709.8982u 
  784.00000m  784.0000m  694.7870u 
  785.00000m  785.0000m  679.9752u 
  786.00000m  786.0000m  665.4575u 
  787.00000m  787.0000m  651.2286u 
  788.00000m  788.0000m  637.2833u 
  789.00000m  789.0000m  623.6166u 
  790.00000m  790.0000m  610.2233u 
  791.00000m  791.0000m  597.0986u 
  792.00000m  792.0000m  584.2375u 
  793.00000m  793.0000m  571.6352u 
  794.00000m  794.0000m  559.2871u 
  795.00000m  795.0000m  547.1884u 
  796.00000m  796.0000m  535.3347u 
  797.00000m  797.0000m  523.7213u 
  798.00000m  798.0000m  512.3439u 
  799.00000m  799.0000m  501.1982u 
  800.00000m  800.0000m  490.2798u 
  801.00000m  801.0000m  479.5844u 
  802.00000m  802.0000m  469.1081u 
  803.00000m  803.0000m  458.8467u 
  804.00000m  804.0000m  448.7961u 
  805.00000m  805.0000m  438.9525u 
  806.00000m  806.0000m  429.3120u 
  807.00000m  807.0000m  419.8707u 
  808.00000m  808.0000m  410.6249u 
  809.00000m  809.0000m  401.5710u 
  810.00000m  810.0000m  392.7052u 
  811.00000m  811.0000m  384.0240u 
  812.00000m  812.0000m  375.5240u 
  813.00000m  813.0000m  367.2016u 
  814.00000m  814.0000m  359.0535u 
  815.00000m  815.0000m  351.0763u 
  816.00000m  816.0000m  343.2668u 
  817.00000m  817.0000m  335.6218u 
  818.00000m  818.0000m  328.1381u 
  819.00000m  819.0000m  320.8125u 
  820.00000m  820.0000m  313.6421u 
  821.00000m  821.0000m  306.6238u 
  822.00000m  822.0000m  299.7547u 
  823.00000m  823.0000m  293.0318u 
  824.00000m  824.0000m  286.4524u 
  825.00000m  825.0000m  280.0136u 
  826.00000m  826.0000m  273.7127u 
  827.00000m  827.0000m  267.5469u 
  828.00000m  828.0000m  261.5137u 
  829.00000m  829.0000m  255.6104u 
  830.00000m  830.0000m  249.8344u 
  831.00000m  831.0000m  244.1833u 
  832.00000m  832.0000m  238.6545u 
  833.00000m  833.0000m  233.2457u 
  834.00000m  834.0000m  227.9544u 
  835.00000m  835.0000m  222.7782u 
  836.00000m  836.0000m  217.7150u 
  837.00000m  837.0000m  212.7625u 
  838.00000m  838.0000m  207.9183u 
  839.00000m  839.0000m  203.1804u 
  840.00000m  840.0000m  198.5466u 
  841.00000m  841.0000m  194.0148u 
  842.00000m  842.0000m  189.5829u 
  843.00000m  843.0000m  185.2490u 
  844.00000m  844.0000m  181.0109u 
  845.00000m  845.0000m  176.8668u 
  846.00000m  846.0000m  172.8148u 
  847.00000m  847.0000m  168.8530u 
  848.00000m  848.0000m  164.9795u 
  849.00000m  849.0000m  161.1925u 
  850.00000m  850.0000m  157.4902u 
  851.00000m  851.0000m  153.8709u 
  852.00000m  852.0000m  150.3329u 
  853.00000m  853.0000m  146.8745u 
  854.00000m  854.0000m  143.4940u 
  855.00000m  855.0000m  140.1899u 
  856.00000m  856.0000m  136.9604u 
  857.00000m  857.0000m  133.8042u 
  858.00000m  858.0000m  130.7196u 
  859.00000m  859.0000m  127.7052u 
  860.00000m  860.0000m  124.7594u 
  861.00000m  861.0000m  121.8808u 
  862.00000m  862.0000m  119.0681u 
  863.00000m  863.0000m  116.3198u 
  864.00000m  864.0000m  113.6345u 
  865.00000m  865.0000m  111.0110u 
  866.00000m  866.0000m  108.4478u 
  867.00000m  867.0000m  105.9438u 
  868.00000m  868.0000m  103.4977u 
  869.00000m  869.0000m  101.1081u 
  870.00000m  870.0000m   98.7740u 
  871.00000m  871.0000m   96.4941u 
  872.00000m  872.0000m   94.2673u 
  873.00000m  873.0000m   92.0924u 
  874.00000m  874.0000m   89.9683u 
  875.00000m  875.0000m   87.8938u 
  876.00000m  876.0000m   85.8680u 
  877.00000m  877.0000m   83.8898u 
  878.00000m  878.0000m   81.9581u 
  879.00000m  879.0000m   80.0718u 
  880.00000m  880.0000m   78.2302u 
  881.00000m  881.0000m   76.4320u 
  882.00000m  882.0000m   74.6764u 
  883.00000m  883.0000m   72.9625u 
  884.00000m  884.0000m   71.2894u 
  885.00000m  885.0000m   69.6560u 
  886.00000m  886.0000m   68.0617u 
  887.00000m  887.0000m   66.5054u 
  888.00000m  888.0000m   64.9864u 
  889.00000m  889.0000m   63.5038u 
  890.00000m  890.0000m   62.0568u 
  891.00000m  891.0000m   60.6446u 
  892.00000m  892.0000m   59.2665u 
  893.00000m  893.0000m   57.9217u 
  894.00000m  894.0000m   56.6094u 
  895.00000m  895.0000m   55.3289u 
  896.00000m  896.0000m   54.0794u 
  897.00000m  897.0000m   52.8604u 
  898.00000m  898.0000m   51.6711u 
  899.00000m  899.0000m   50.5108u 
  900.00000m  900.0000m   49.3789u 
  901.00000m  901.0000m   48.2747u 
  902.00000m  902.0000m   47.1976u 
  903.00000m  903.0000m   46.1469u 
  904.00000m  904.0000m   45.1222u 
  905.00000m  905.0000m   44.1227u 
  906.00000m  906.0000m   43.1480u 
  907.00000m  907.0000m   42.1973u 
  908.00000m  908.0000m   41.2703u 
  909.00000m  909.0000m   40.3663u 
  910.00000m  910.0000m   39.4848u 
  911.00000m  911.0000m   38.6253u 
  912.00000m  912.0000m   37.7873u 
  913.00000m  913.0000m   36.9703u 
  914.00000m  914.0000m   36.1738u 
  915.00000m  915.0000m   35.3973u 
  916.00000m  916.0000m   34.6404u 
  917.00000m  917.0000m   33.9025u 
  918.00000m  918.0000m   33.1834u 
  919.00000m  919.0000m   32.4824u 
  920.00000m  920.0000m   31.7993u 
  921.00000m  921.0000m   31.1335u 
  922.00000m  922.0000m   30.4847u 
  923.00000m  923.0000m   29.8524u 
  924.00000m  924.0000m   29.2364u 
  925.00000m  925.0000m   28.6361u 
  926.00000m  926.0000m   28.0513u 
  927.00000m  927.0000m   27.4815u 
  928.00000m  928.0000m   26.9264u 
  929.00000m  929.0000m   26.3857u 
  930.00000m  930.0000m   25.8590u 
  931.00000m  931.0000m   25.3460u 
  932.00000m  932.0000m   24.8464u 
  933.00000m  933.0000m   24.3598u 
  934.00000m  934.0000m   23.8859u 
  935.00000m  935.0000m   23.4245u 
  936.00000m  936.0000m   22.9752u 
  937.00000m  937.0000m   22.5377u 
  938.00000m  938.0000m   22.1117u 
  939.00000m  939.0000m   21.6971u 
  940.00000m  940.0000m   21.2935u 
  941.00000m  941.0000m   20.9006u 
  942.00000m  942.0000m   20.5181u 
  943.00000m  943.0000m   20.1459u 
  944.00000m  944.0000m   19.7837u 
  945.00000m  945.0000m   19.4313u 
  946.00000m  946.0000m   19.0883u 
  947.00000m  947.0000m   18.7547u 
  948.00000m  948.0000m   18.4300u 
  949.00000m  949.0000m   18.1142u 
  950.00000m  950.0000m   17.8071u 
  951.00000m  951.0000m   17.5083u 
  952.00000m  952.0000m   17.2177u 
  953.00000m  953.0000m   16.9352u 
  954.00000m  954.0000m   16.6605u 
  955.00000m  955.0000m   16.3933u 
  956.00000m  956.0000m   16.1336u 
  957.00000m  957.0000m   15.8812u 
  958.00000m  958.0000m   15.6358u 
  959.00000m  959.0000m   15.3974u 
  960.00000m  960.0000m   15.1656u 
  961.00000m  961.0000m   14.9405u 
  962.00000m  962.0000m   14.7217u 
  963.00000m  963.0000m   14.5092u 
  964.00000m  964.0000m   14.3028u 
  965.00000m  965.0000m   14.1023u 
  966.00000m  966.0000m   13.9077u 
  967.00000m  967.0000m   13.7187u 
  968.00000m  968.0000m   13.5352u 
  969.00000m  969.0000m   13.3571u 
  970.00000m  970.0000m   13.1842u 
  971.00000m  971.0000m   13.0165u 
  972.00000m  972.0000m   12.8537u 
  973.00000m  973.0000m   12.6958u 
  974.00000m  974.0000m   12.5427u 
  975.00000m  975.0000m   12.3942u 
  976.00000m  976.0000m   12.2503u 
  977.00000m  977.0000m   12.1107u 
  978.00000m  978.0000m   11.9754u 
  979.00000m  979.0000m   11.8444u 
  980.00000m  980.0000m   11.7174u 
  981.00000m  981.0000m   11.5944u 
  982.00000m  982.0000m   11.4753u 
  983.00000m  983.0000m   11.3599u 
  984.00000m  984.0000m   11.2483u 
  985.00000m  985.0000m   11.1403u 
  986.00000m  986.0000m   11.0358u 
  987.00000m  987.0000m   10.9347u 
  988.00000m  988.0000m   10.8370u 
  989.00000m  989.0000m   10.7425u 
  990.00000m  990.0000m   10.6513u 
  991.00000m  991.0000m   10.5631u 
  992.00000m  992.0000m   10.4779u 
  993.00000m  993.0000m   10.3957u 
  994.00000m  994.0000m   10.3164u 
  995.00000m  995.0000m   10.2399u 
  996.00000m  996.0000m   10.1661u 
  997.00000m  997.0000m   10.0950u 
  998.00000m  998.0000m   10.0265u 
  999.00000m  999.0000m    9.9605u 
    1.00000     1.0000     9.8971u 
y

          ***** job concluded
 ******  
 

 ****** job statistics summary tnom=  25.000 temp=  25.000 ******

  ******  Circuit Statistics  ******
  # nodes       =      12 # elements   =       4
  # resistors   =       0 # capacitors =       0 # inductors   =       0
  # mutual_inds =       0 # vccs       =       0 # vcvs        =       0
  # cccs        =       0 # ccvs       =       0 # volt_srcs   =       2
  # curr_srcs   =       0 # diodes     =       0 # bjts        =       0
  # jfets       =       0 # mosfets    =       2 # U elements  =       0
  # T elements  =       0 # W elements =       0 # B elements  =       0
  # S elements  =       0 # P elements =       0 # va device   =       0
  # vector_srcs =       0 # N elements =       0


  ******  Runtime Statistics (seconds)  ******

  analysis           time    # points   tot. iter  conv.iter
  op point           0.00           1           0
  dc sweep           0.05        1001        2017
  readin             0.01
  errchk             0.00
  setup              0.00
  output             0.00


           peak memory used         62.32 megabytes
           total cpu time            0.06 seconds
           total elapsed time        0.08 seconds
           job started at     16:51:06 11/03/2021
           job ended   at     16:51:07 11/03/2021


  lic: Release hspice token(s) 
 lic: total license checkout elapse time:        0.02(s)
