 ****** HSPICE -- O-2018.09-SP2 win64 (Feb 25 2019) ******                      
  Copyright (c) 1986 - 2021 by Synopsys, Inc. All Rights Reserved.              
  This software and the associated documentation are proprietary
  to Synopsys, Inc. This software may only be used in accordance
  with the terms and conditions of a written license agreement with
  Synopsys, Inc. All other use, reproduction, or distribution of
  this software is strictly prohibited.
  Input File: inverter.sp                                                       
  Command line options: C:\synopsys\Hspice_O-2018.09-SP2\WIN64\hspice.com -i inverter.sp -o C:\sdsy\case2\inverter.lis
  Start time: Wed Nov  3 12:56:22 2021
  lic:  
  lic: FLEXlm: SDK_11.7.3 
  lic: USER:   admin                HOSTNAME: DESKTOP-3KO7170 
  lic: HOSTID: "d83bbfb49802"       PID:      53820 
  lic: Using FLEXlm license file: 
  lic: 27000@DESKTOP-3KO7170 
  lic: Checkout 1 hspice 
  lic: License/Maintenance for hspice will expire on 30-dec-2029/2019.2019 
  lic: 1(in_use)/99(total) FLOATING license(s) on SERVER 27000@DESKTOP-3KO7170 
  lic:   
  
      

Element variations(Local):   element              parameter
 *****************************************************************
 ******  option summary
 ******
 runlvl  = 3         bypass  = 2.0000    
 ******
 

 ****** dc transfer curves tnom=  25.000 temp=  25.000 ******
x

 volt         voltage    voltage   
             vin        vout       
    0.          0.       999.9653m 
    1.00000m    1.0000m  999.9644m 
    2.00000m    2.0000m  999.9636m 
    3.00000m    3.0000m  999.9627m 
    4.00000m    4.0000m  999.9617m 
    5.00000m    5.0000m  999.9608m 
    6.00000m    6.0000m  999.9598m 
    7.00000m    7.0000m  999.9588m 
    8.00000m    8.0000m  999.9577m 
    9.00000m    9.0000m  999.9566m 
   10.00000m   10.0000m  999.9555m 
   11.00000m   11.0000m  999.9544m 
   12.00000m   12.0000m  999.9532m 
   13.00000m   13.0000m  999.9519m 
   14.00000m   14.0000m  999.9507m 
   15.00000m   15.0000m  999.9494m 
   16.00000m   16.0000m  999.9480m 
   17.00000m   17.0000m  999.9466m 
   18.00000m   18.0000m  999.9452m 
   19.00000m   19.0000m  999.9437m 
   20.00000m   20.0000m  999.9422m 
   21.00000m   21.0000m  999.9406m 
   22.00000m   22.0000m  999.9390m 
   23.00000m   23.0000m  999.9374m 
   24.00000m   24.0000m  999.9356m 
   25.00000m   25.0000m  999.9339m 
   26.00000m   26.0000m  999.9320m 
   27.00000m   27.0000m  999.9302m 
   28.00000m   28.0000m  999.9282m 
   29.00000m   29.0000m  999.9262m 
   30.00000m   30.0000m  999.9242m 
   31.00000m   31.0000m  999.9221m 
   32.00000m   32.0000m  999.9199m 
   33.00000m   33.0000m  999.9176m 
   34.00000m   34.0000m  999.9153m 
   35.00000m   35.0000m  999.9129m 
   36.00000m   36.0000m  999.9105m 
   37.00000m   37.0000m  999.9079m 
   38.00000m   38.0000m  999.9053m 
   39.00000m   39.0000m  999.9026m 
   40.00000m   40.0000m  999.8999m 
   41.00000m   41.0000m  999.8970m 
   42.00000m   42.0000m  999.8941m 
   43.00000m   43.0000m  999.8910m 
   44.00000m   44.0000m  999.8879m 
   45.00000m   45.0000m  999.8847m 
   46.00000m   46.0000m  999.8814m 
   47.00000m   47.0000m  999.8780m 
   48.00000m   48.0000m  999.8745m 
   49.00000m   49.0000m  999.8709m 
   50.00000m   50.0000m  999.8672m 
   51.00000m   51.0000m  999.8633m 
   52.00000m   52.0000m  999.8594m 
   53.00000m   53.0000m  999.8553m 
   54.00000m   54.0000m  999.8512m 
   55.00000m   55.0000m  999.8469m 
   56.00000m   56.0000m  999.8424m 
   57.00000m   57.0000m  999.8379m 
   58.00000m   58.0000m  999.8332m 
   59.00000m   59.0000m  999.8283m 
   60.00000m   60.0000m  999.8234m 
   61.00000m   61.0000m  999.8183m 
   62.00000m   62.0000m  999.8130m 
   63.00000m   63.0000m  999.8076m 
   64.00000m   64.0000m  999.8020m 
   65.00000m   65.0000m  999.7962m 
   66.00000m   66.0000m  999.7903m 
   67.00000m   67.0000m  999.7842m 
   68.00000m   68.0000m  999.7780m 
   69.00000m   69.0000m  999.7715m 
   70.00000m   70.0000m  999.7649m 
   71.00000m   71.0000m  999.7581m 
   72.00000m   72.0000m  999.7511m 
   73.00000m   73.0000m  999.7439m 
   74.00000m   74.0000m  999.7364m 
   75.00000m   75.0000m  999.7288m 
   76.00000m   76.0000m  999.7209m 
   77.00000m   77.0000m  999.7128m 
   78.00000m   78.0000m  999.7045m 
   79.00000m   79.0000m  999.6960m 
   80.00000m   80.0000m  999.6872m 
   81.00000m   81.0000m  999.6781m 
   82.00000m   82.0000m  999.6688m 
   83.00000m   83.0000m  999.6592m 
   84.00000m   84.0000m  999.6494m 
   85.00000m   85.0000m  999.6393m 
   86.00000m   86.0000m  999.6289m 
   87.00000m   87.0000m  999.6182m 
   88.00000m   88.0000m  999.6072m 
   89.00000m   89.0000m  999.5958m 
   90.00000m   90.0000m  999.5842m 
   91.00000m   91.0000m  999.5722m 
   92.00000m   92.0000m  999.5599m 
   93.00000m   93.0000m  999.5473m 
   94.00000m   94.0000m  999.5343m 
   95.00000m   95.0000m  999.5210m 
   96.00000m   96.0000m  999.5072m 
   97.00000m   97.0000m  999.4931m 
   98.00000m   98.0000m  999.4786m 
   99.00000m   99.0000m  999.4637m 
  100.00000m  100.0000m  999.4484m 
  101.00000m  101.0000m  999.4327m 
  102.00000m  102.0000m  999.4165m 
  103.00000m  103.0000m  999.3999m 
  104.00000m  104.0000m  999.3828m 
  105.00000m  105.0000m  999.3652m 
  106.00000m  106.0000m  999.3472m 
  107.00000m  107.0000m  999.3287m 
  108.00000m  108.0000m  999.3097m 
  109.00000m  109.0000m  999.2902m 
  110.00000m  110.0000m  999.2701m 
  111.00000m  111.0000m  999.2495m 
  112.00000m  112.0000m  999.2283m 
  113.00000m  113.0000m  999.2066m 
  114.00000m  114.0000m  999.1843m 
  115.00000m  115.0000m  999.1613m 
  116.00000m  116.0000m  999.1378m 
  117.00000m  117.0000m  999.1136m 
  118.00000m  118.0000m  999.0888m 
  119.00000m  119.0000m  999.0633m 
  120.00000m  120.0000m  999.0372m 
  121.00000m  121.0000m  999.0103m 
  122.00000m  122.0000m  998.9828m 
  123.00000m  123.0000m  998.9545m 
  124.00000m  124.0000m  998.9255m 
  125.00000m  125.0000m  998.8957m 
  126.00000m  126.0000m  998.8651m 
  127.00000m  127.0000m  998.8337m 
  128.00000m  128.0000m  998.8015m 
  129.00000m  129.0000m  998.7684m 
  130.00000m  130.0000m  998.7345m 
  131.00000m  131.0000m  998.6998m 
  132.00000m  132.0000m  998.6641m 
  133.00000m  133.0000m  998.6275m 
  134.00000m  134.0000m  998.5899m 
  135.00000m  135.0000m  998.5514m 
  136.00000m  136.0000m  998.5119m 
  137.00000m  137.0000m  998.4714m 
  138.00000m  138.0000m  998.4298m 
  139.00000m  139.0000m  998.3872m 
  140.00000m  140.0000m  998.3435m 
  141.00000m  141.0000m  998.2988m 
  142.00000m  142.0000m  998.2528m 
  143.00000m  143.0000m  998.2057m 
  144.00000m  144.0000m  998.1575m 
  145.00000m  145.0000m  998.1080m 
  146.00000m  146.0000m  998.0573m 
  147.00000m  147.0000m  998.0053m 
  148.00000m  148.0000m  997.9520m 
  149.00000m  149.0000m  997.8974m 
  150.00000m  150.0000m  997.8414m 
  151.00000m  151.0000m  997.7841m 
  152.00000m  152.0000m  997.7254m 
  153.00000m  153.0000m  997.6652m 
  154.00000m  154.0000m  997.6035m 
  155.00000m  155.0000m  997.5403m 
  156.00000m  156.0000m  997.4756m 
  157.00000m  157.0000m  997.4093m 
  158.00000m  158.0000m  997.3415m 
  159.00000m  159.0000m  997.2719m 
  160.00000m  160.0000m  997.2007m 
  161.00000m  161.0000m  997.1278m 
  162.00000m  162.0000m  997.0532m 
  163.00000m  163.0000m  996.9767m 
  164.00000m  164.0000m  996.8985m 
  165.00000m  165.0000m  996.8184m 
  166.00000m  166.0000m  996.7364m 
  167.00000m  167.0000m  996.6524m 
  168.00000m  168.0000m  996.5665m 
  169.00000m  169.0000m  996.4786m 
  170.00000m  170.0000m  996.3886m 
  171.00000m  171.0000m  996.2965m 
  172.00000m  172.0000m  996.2023m 
  173.00000m  173.0000m  996.1059m 
  174.00000m  174.0000m  996.0073m 
  175.00000m  175.0000m  995.9064m 
  176.00000m  176.0000m  995.8032m 
  177.00000m  177.0000m  995.6976m 
  178.00000m  178.0000m  995.5896m 
  179.00000m  179.0000m  995.4792m 
  180.00000m  180.0000m  995.3662m 
  181.00000m  181.0000m  995.2507m 
  182.00000m  182.0000m  995.1327m 
  183.00000m  183.0000m  995.0119m 
  184.00000m  184.0000m  994.8885m 
  185.00000m  185.0000m  994.7623m 
  186.00000m  186.0000m  994.6333m 
  187.00000m  187.0000m  994.5014m 
  188.00000m  188.0000m  994.3667m 
  189.00000m  189.0000m  994.2289m 
  190.00000m  190.0000m  994.0882m 
  191.00000m  191.0000m  993.9444m 
  192.00000m  192.0000m  993.7974m 
  193.00000m  193.0000m  993.6473m 
  194.00000m  194.0000m  993.4939m 
  195.00000m  195.0000m  993.3372m 
  196.00000m  196.0000m  993.1771m 
  197.00000m  197.0000m  993.0136m 
  198.00000m  198.0000m  992.8467m 
  199.00000m  199.0000m  992.6761m 
  200.00000m  200.0000m  992.5020m 
  201.00000m  201.0000m  992.3242m 
  202.00000m  202.0000m  992.1426m 
  203.00000m  203.0000m  991.9572m 
  204.00000m  204.0000m  991.7680m 
  205.00000m  205.0000m  991.5748m 
  206.00000m  206.0000m  991.3776m 
  207.00000m  207.0000m  991.1763m 
  208.00000m  208.0000m  990.9709m 
  209.00000m  209.0000m  990.7613m 
  210.00000m  210.0000m  990.5474m 
  211.00000m  211.0000m  990.3291m 
  212.00000m  212.0000m  990.1064m 
  213.00000m  213.0000m  989.8792m 
  214.00000m  214.0000m  989.6474m 
  215.00000m  215.0000m  989.4110m 
  216.00000m  216.0000m  989.1698m 
  217.00000m  217.0000m  988.9238m 
  218.00000m  218.0000m  988.6730m 
  219.00000m  219.0000m  988.4171m 
  220.00000m  220.0000m  988.1563m 
  221.00000m  221.0000m  987.8903m 
  222.00000m  222.0000m  987.6191m 
  223.00000m  223.0000m  987.3426m 
  224.00000m  224.0000m  987.0607m 
  225.00000m  225.0000m  986.7734m 
  226.00000m  226.0000m  986.4806m 
  227.00000m  227.0000m  986.1821m 
  228.00000m  228.0000m  985.8779m 
  229.00000m  229.0000m  985.5680m 
  230.00000m  230.0000m  985.2521m 
  231.00000m  231.0000m  984.9303m 
  232.00000m  232.0000m  984.6024m 
  233.00000m  233.0000m  984.2684m 
  234.00000m  234.0000m  983.9281m 
  235.00000m  235.0000m  983.5815m 
  236.00000m  236.0000m  983.2284m 
  237.00000m  237.0000m  982.8689m 
  238.00000m  238.0000m  982.5027m 
  239.00000m  239.0000m  982.1298m 
  240.00000m  240.0000m  981.7502m 
  241.00000m  241.0000m  981.3636m 
  242.00000m  242.0000m  980.9700m 
  243.00000m  243.0000m  980.5693m 
  244.00000m  244.0000m  980.1614m 
  245.00000m  245.0000m  979.7462m 
  246.00000m  246.0000m  979.3237m 
  247.00000m  247.0000m  978.8936m 
  248.00000m  248.0000m  978.4559m 
  249.00000m  249.0000m  978.0106m 
  250.00000m  250.0000m  977.5574m 
  251.00000m  251.0000m  977.0963m 
  252.00000m  252.0000m  976.6273m 
  253.00000m  253.0000m  976.1501m 
  254.00000m  254.0000m  975.6646m 
  255.00000m  255.0000m  975.1709m 
  256.00000m  256.0000m  974.6687m 
  257.00000m  257.0000m  974.1580m 
  258.00000m  258.0000m  973.6386m 
  259.00000m  259.0000m  973.1104m 
  260.00000m  260.0000m  972.5734m 
  261.00000m  261.0000m  972.0274m 
  262.00000m  262.0000m  971.4724m 
  263.00000m  263.0000m  970.9081m 
  264.00000m  264.0000m  970.3345m 
  265.00000m  265.0000m  969.7515m 
  266.00000m  266.0000m  969.1590m 
  267.00000m  267.0000m  968.5568m 
  268.00000m  268.0000m  967.9449m 
  269.00000m  269.0000m  967.3230m 
  270.00000m  270.0000m  966.6912m 
  271.00000m  271.0000m  966.0494m 
  272.00000m  272.0000m  965.3972m 
  273.00000m  273.0000m  964.7348m 
  274.00000m  274.0000m  964.0619m 
  275.00000m  275.0000m  963.3785m 
  276.00000m  276.0000m  962.6844m 
  277.00000m  277.0000m  961.9796m 
  278.00000m  278.0000m  961.2638m 
  279.00000m  279.0000m  960.5370m 
  280.00000m  280.0000m  959.7991m 
  281.00000m  281.0000m  959.0499m 
  282.00000m  282.0000m  958.2894m 
  283.00000m  283.0000m  957.5174m 
  284.00000m  284.0000m  956.7338m 
  285.00000m  285.0000m  955.9385m 
  286.00000m  286.0000m  955.1315m 
  287.00000m  287.0000m  954.3124m 
  288.00000m  288.0000m  953.4814m 
  289.00000m  289.0000m  952.6381m 
  290.00000m  290.0000m  951.7827m 
  291.00000m  291.0000m  950.9148m 
  292.00000m  292.0000m  950.0344m 
  293.00000m  293.0000m  949.1414m 
  294.00000m  294.0000m  948.2357m 
  295.00000m  295.0000m  947.3172m 
  296.00000m  296.0000m  946.3858m 
  297.00000m  297.0000m  945.4413m 
  298.00000m  298.0000m  944.4836m 
  299.00000m  299.0000m  943.5127m 
  300.00000m  300.0000m  942.5284m 
  301.00000m  301.0000m  941.5306m 
  302.00000m  302.0000m  940.5192m 
  303.00000m  303.0000m  939.4942m 
  304.00000m  304.0000m  938.4553m 
  305.00000m  305.0000m  937.4026m 
  306.00000m  306.0000m  936.3358m 
  307.00000m  307.0000m  935.2550m 
  308.00000m  308.0000m  934.1600m 
  309.00000m  309.0000m  933.0506m 
  310.00000m  310.0000m  931.9269m 
  311.00000m  311.0000m  930.7887m 
  312.00000m  312.0000m  929.6359m 
  313.00000m  313.0000m  928.4685m 
  314.00000m  314.0000m  927.2862m 
  315.00000m  315.0000m  926.0891m 
  316.00000m  316.0000m  924.8771m 
  317.00000m  317.0000m  923.6500m 
  318.00000m  318.0000m  922.4078m 
  319.00000m  319.0000m  921.1505m 
  320.00000m  320.0000m  919.8778m 
  321.00000m  321.0000m  918.5897m 
  322.00000m  322.0000m  917.2863m 
  323.00000m  323.0000m  915.9673m 
  324.00000m  324.0000m  914.6327m 
  325.00000m  325.0000m  913.2824m 
  326.00000m  326.0000m  911.9164m 
  327.00000m  327.0000m  910.5346m 
  328.00000m  328.0000m  909.1369m 
  329.00000m  329.0000m  907.7233m 
  330.00000m  330.0000m  906.2937m 
  331.00000m  331.0000m  904.8480m 
  332.00000m  332.0000m  903.3862m 
  333.00000m  333.0000m  901.9083m 
  334.00000m  334.0000m  900.4141m 
  335.00000m  335.0000m  898.9036m 
  336.00000m  336.0000m  897.3768m 
  337.00000m  337.0000m  895.8336m 
  338.00000m  338.0000m  894.2740m 
  339.00000m  339.0000m  892.6980m 
  340.00000m  340.0000m  891.1054m 
  341.00000m  341.0000m  889.4963m 
  342.00000m  342.0000m  887.8707m 
  343.00000m  343.0000m  886.2284m 
  344.00000m  344.0000m  884.5695m 
  345.00000m  345.0000m  882.8941m 
  346.00000m  346.0000m  881.2021m 
  347.00000m  347.0000m  879.4936m 
  348.00000m  348.0000m  877.7684m 
  349.00000m  349.0000m  876.0267m 
  350.00000m  350.0000m  874.2683m 
  351.00000m  351.0000m  872.4934m 
  352.00000m  352.0000m  870.7018m 
  353.00000m  353.0000m  868.8936m 
  354.00000m  354.0000m  867.0688m 
  355.00000m  355.0000m  865.2273m 
  356.00000m  356.0000m  863.3693m 
  357.00000m  357.0000m  861.4947m 
  358.00000m  358.0000m  859.6034m 
  359.00000m  359.0000m  857.6957m 
  360.00000m  360.0000m  855.7713m 
  361.00000m  361.0000m  853.8305m 
  362.00000m  362.0000m  851.8731m 
  363.00000m  363.0000m  849.8993m 
  364.00000m  364.0000m  847.9090m 
  365.00000m  365.0000m  845.9024m 
  366.00000m  366.0000m  843.8793m 
  367.00000m  367.0000m  841.8399m 
  368.00000m  368.0000m  839.7843m 
  369.00000m  369.0000m  837.7123m 
  370.00000m  370.0000m  835.6242m 
  371.00000m  371.0000m  833.5199m 
  372.00000m  372.0000m  831.3996m 
  373.00000m  373.0000m  829.2631m 
  374.00000m  374.0000m  827.1107m 
  375.00000m  375.0000m  824.9424m 
  376.00000m  376.0000m  822.7582m 
  377.00000m  377.0000m  820.5582m 
  378.00000m  378.0000m  818.3425m 
  379.00000m  379.0000m  816.1111m 
  380.00000m  380.0000m  813.8641m 
  381.00000m  381.0000m  811.6016m 
  382.00000m  382.0000m  809.3237m 
  383.00000m  383.0000m  807.0305m 
  384.00000m  384.0000m  804.7219m 
  385.00000m  385.0000m  802.3982m 
  386.00000m  386.0000m  800.0594m 
  387.00000m  387.0000m  797.7056m 
  388.00000m  388.0000m  795.3369m 
  389.00000m  389.0000m  792.9534m 
  390.00000m  390.0000m  790.5552m 
  391.00000m  391.0000m  788.1423m 
  392.00000m  392.0000m  785.7149m 
  393.00000m  393.0000m  783.2732m 
  394.00000m  394.0000m  780.8171m 
  395.00000m  395.0000m  778.3468m 
  396.00000m  396.0000m  775.8624m 
  397.00000m  397.0000m  773.3640m 
  398.00000m  398.0000m  770.8518m 
  399.00000m  399.0000m  768.3258m 
  400.00000m  400.0000m  765.7862m 
  401.00000m  401.0000m  763.2331m 
  402.00000m  402.0000m  760.6666m 
  403.00000m  403.0000m  758.0868m 
  404.00000m  404.0000m  755.4939m 
  405.00000m  405.0000m  752.8879m 
  406.00000m  406.0000m  750.2691m 
  407.00000m  407.0000m  747.6375m 
  408.00000m  408.0000m  744.9932m 
  409.00000m  409.0000m  742.3365m 
  410.00000m  410.0000m  739.6674m 
  411.00000m  411.0000m  736.9860m 
  412.00000m  412.0000m  734.2926m 
  413.00000m  413.0000m  731.5872m 
  414.00000m  414.0000m  728.8699m 
  415.00000m  415.0000m  726.1410m 
  416.00000m  416.0000m  723.4005m 
  417.00000m  417.0000m  720.6486m 
  418.00000m  418.0000m  717.8855m 
  419.00000m  419.0000m  715.1113m 
  420.00000m  420.0000m  712.3260m 
  421.00000m  421.0000m  709.5300m 
  422.00000m  422.0000m  706.7232m 
  423.00000m  423.0000m  703.9059m 
  424.00000m  424.0000m  701.0783m 
  425.00000m  425.0000m  698.2404m 
  426.00000m  426.0000m  695.3924m 
  427.00000m  427.0000m  692.5344m 
  428.00000m  428.0000m  689.6667m 
  429.00000m  429.0000m  686.7893m 
  430.00000m  430.0000m  683.9025m 
  431.00000m  431.0000m  681.0063m 
  432.00000m  432.0000m  678.1009m 
  433.00000m  433.0000m  675.1865m 
  434.00000m  434.0000m  672.2633m 
  435.00000m  435.0000m  669.3313m 
  436.00000m  436.0000m  666.3907m 
  437.00000m  437.0000m  663.4418m 
  438.00000m  438.0000m  660.4845m 
  439.00000m  439.0000m  657.5192m 
  440.00000m  440.0000m  654.5459m 
  441.00000m  441.0000m  651.5649m 
  442.00000m  442.0000m  648.5762m 
  443.00000m  443.0000m  645.5800m 
  444.00000m  444.0000m  642.5765m 
  445.00000m  445.0000m  639.5659m 
  446.00000m  446.0000m  636.5482m 
  447.00000m  447.0000m  633.5237m 
  448.00000m  448.0000m  630.4925m 
  449.00000m  449.0000m  627.4548m 
  450.00000m  450.0000m  624.4107m 
  451.00000m  451.0000m  621.3604m 
  452.00000m  452.0000m  618.3040m 
  453.00000m  453.0000m  615.2417m 
  454.00000m  454.0000m  612.1736m 
  455.00000m  455.0000m  609.1000m 
  456.00000m  456.0000m  606.0209m 
  457.00000m  457.0000m  602.9366m 
  458.00000m  458.0000m  599.8471m 
  459.00000m  459.0000m  596.7527m 
  460.00000m  460.0000m  593.6535m 
  461.00000m  461.0000m  590.5496m 
  462.00000m  462.0000m  587.4412m 
  463.00000m  463.0000m  584.3285m 
  464.00000m  464.0000m  581.2117m 
  465.00000m  465.0000m  578.0908m 
  466.00000m  466.0000m  574.9660m 
  467.00000m  467.0000m  571.8376m 
  468.00000m  468.0000m  568.7056m 
  469.00000m  469.0000m  565.5702m 
  470.00000m  470.0000m  562.4316m 
  471.00000m  471.0000m  559.2899m 
  472.00000m  472.0000m  556.1453m 
  473.00000m  473.0000m  552.9980m 
  474.00000m  474.0000m  549.8480m 
  475.00000m  475.0000m  546.6956m 
  476.00000m  476.0000m  543.5409m 
  477.00000m  477.0000m  540.3841m 
  478.00000m  478.0000m  537.2253m 
  479.00000m  479.0000m  534.0646m 
  480.00000m  480.0000m  530.9024m 
  481.00000m  481.0000m  527.7386m 
  482.00000m  482.0000m  524.5735m 
  483.00000m  483.0000m  521.4072m 
  484.00000m  484.0000m  518.2400m 
  485.00000m  485.0000m  515.0718m 
  486.00000m  486.0000m  511.9030m 
  487.00000m  487.0000m  508.7336m 
  488.00000m  488.0000m  505.5638m 
  489.00000m  489.0000m  502.3938m 
  490.00000m  490.0000m  499.2238m 
  491.00000m  491.0000m  496.0539m 
  492.00000m  492.0000m  492.8842m 
  493.00000m  493.0000m  489.7150m 
  494.00000m  494.0000m  486.5464m 
  495.00000m  495.0000m  483.3785m 
  496.00000m  496.0000m  480.2116m 
  497.00000m  497.0000m  477.0458m 
  498.00000m  498.0000m  473.8813m 
  499.00000m  499.0000m  470.7182m 
  500.00000m  500.0000m  467.5567m 
  501.00000m  501.0000m  464.3970m 
  502.00000m  502.0000m  461.2393m 
  503.00000m  503.0000m  458.0837m 
  504.00000m  504.0000m  454.9304m 
  505.00000m  505.0000m  451.7796m 
  506.00000m  506.0000m  448.6315m 
  507.00000m  507.0000m  445.4862m 
  508.00000m  508.0000m  442.3440m 
  509.00000m  509.0000m  439.2049m 
  510.00000m  510.0000m  436.0693m 
  511.00000m  511.0000m  432.9373m 
  512.00000m  512.0000m  429.8091m 
  513.00000m  513.0000m  426.6848m 
  514.00000m  514.0000m  423.5648m 
  515.00000m  515.0000m  420.4491m 
  516.00000m  516.0000m  417.3380m 
  517.00000m  517.0000m  414.2318m 
  518.00000m  518.0000m  411.1305m 
  519.00000m  519.0000m  408.0344m 
  520.00000m  520.0000m  404.9438m 
  521.00000m  521.0000m  401.8588m 
  522.00000m  522.0000m  398.7797m 
  523.00000m  523.0000m  395.7067m 
  524.00000m  524.0000m  392.6401m 
  525.00000m  525.0000m  389.5800m 
  526.00000m  526.0000m  386.5268m 
  527.00000m  527.0000m  383.4806m 
  528.00000m  528.0000m  380.4418m 
  529.00000m  529.0000m  377.4105m 
  530.00000m  530.0000m  374.3871m 
  531.00000m  531.0000m  371.3718m 
  532.00000m  532.0000m  368.3649m 
  533.00000m  533.0000m  365.3667m 
  534.00000m  534.0000m  362.3775m 
  535.00000m  535.0000m  359.3975m 
  536.00000m  536.0000m  356.4271m 
  537.00000m  537.0000m  353.4666m 
  538.00000m  538.0000m  350.5163m 
  539.00000m  539.0000m  347.5766m 
  540.00000m  540.0000m  344.6477m 
  541.00000m  541.0000m  341.7301m 
  542.00000m  542.0000m  338.8240m 
  543.00000m  543.0000m  335.9299m 
  544.00000m  544.0000m  333.0482m 
  545.00000m  545.0000m  330.1792m 
  546.00000m  546.0000m  327.3233m 
  547.00000m  547.0000m  324.4810m 
  548.00000m  548.0000m  321.6526m 
  549.00000m  549.0000m  318.8387m 
  550.00000m  550.0000m  316.0396m 
  551.00000m  551.0000m  313.2558m 
  552.00000m  552.0000m  310.4878m 
  553.00000m  553.0000m  307.7361m 
  554.00000m  554.0000m  305.0012m 
  555.00000m  555.0000m  302.2836m 
  556.00000m  556.0000m  299.5839m 
  557.00000m  557.0000m  296.9025m 
  558.00000m  558.0000m  294.2401m 
  559.00000m  559.0000m  291.5971m 
  560.00000m  560.0000m  288.9743m 
  561.00000m  561.0000m  286.3721m 
  562.00000m  562.0000m  283.7912m 
  563.00000m  563.0000m  281.2322m 
  564.00000m  564.0000m  278.6957m 
  565.00000m  565.0000m  276.1824m 
  566.00000m  566.0000m  273.6929m 
  567.00000m  567.0000m  271.2278m 
  568.00000m  568.0000m  268.7878m 
  569.00000m  569.0000m  266.3736m 
  570.00000m  570.0000m  263.9857m 
  571.00000m  571.0000m  261.6248m 
  572.00000m  572.0000m  259.2916m 
  573.00000m  573.0000m  256.9867m 
  574.00000m  574.0000m  254.7107m 
  575.00000m  575.0000m  252.4641m 
  576.00000m  576.0000m  250.2476m 
  577.00000m  577.0000m  248.0616m 
  578.00000m  578.0000m  245.9068m 
  579.00000m  579.0000m  243.7835m 
  580.00000m  580.0000m  241.6923m 
  581.00000m  581.0000m  239.6334m 
  582.00000m  582.0000m  237.6073m 
  583.00000m  583.0000m  235.6143m 
  584.00000m  584.0000m  233.6546m 
  585.00000m  585.0000m  231.7284m 
  586.00000m  586.0000m  229.8359m 
  587.00000m  587.0000m  227.9772m 
  588.00000m  588.0000m  226.1522m 
  589.00000m  589.0000m  224.3611m 
  590.00000m  590.0000m  222.6036m 
  591.00000m  591.0000m  220.8797m 
  592.00000m  592.0000m  219.1891m 
  593.00000m  593.0000m  217.5316m 
  594.00000m  594.0000m  215.9070m 
  595.00000m  595.0000m  214.3148m 
  596.00000m  596.0000m  212.7547m 
  597.00000m  597.0000m  211.2264m 
  598.00000m  598.0000m  209.7292m 
  599.00000m  599.0000m  208.2627m 
  600.00000m  600.0000m  206.8264m 
  601.00000m  601.0000m  205.4198m 
  602.00000m  602.0000m  204.0422m 
  603.00000m  603.0000m  202.6932m 
  604.00000m  604.0000m  201.3720m 
  605.00000m  605.0000m  200.0782m 
  606.00000m  606.0000m  198.8110m 
  607.00000m  607.0000m  197.5698m 
  608.00000m  608.0000m  196.3541m 
  609.00000m  609.0000m  195.1632m 
  610.00000m  610.0000m  193.9965m 
  611.00000m  611.0000m  192.8534m 
  612.00000m  612.0000m  191.7332m 
  613.00000m  613.0000m  190.6354m 
  614.00000m  614.0000m  189.5594m 
  615.00000m  615.0000m  188.5046m 
  616.00000m  616.0000m  187.4704m 
  617.00000m  617.0000m  186.4563m 
  618.00000m  618.0000m  185.4617m 
  619.00000m  619.0000m  184.4861m 
  620.00000m  620.0000m  183.5290m 
  621.00000m  621.0000m  182.5899m 
  622.00000m  622.0000m  181.6682m 
  623.00000m  623.0000m  180.7636m 
  624.00000m  624.0000m  179.8755m 
  625.00000m  625.0000m  179.0035m 
  626.00000m  626.0000m  178.1472m 
  627.00000m  627.0000m  177.3061m 
  628.00000m  628.0000m  176.4798m 
  629.00000m  629.0000m  175.6680m 
  630.00000m  630.0000m  174.8702m 
  631.00000m  631.0000m  174.0861m 
  632.00000m  632.0000m  173.3153m 
  633.00000m  633.0000m  172.5574m 
  634.00000m  634.0000m  171.8122m 
  635.00000m  635.0000m  171.0793m 
  636.00000m  636.0000m  170.3583m 
  637.00000m  637.0000m  169.6490m 
  638.00000m  638.0000m  168.9512m 
  639.00000m  639.0000m  168.2644m 
  640.00000m  640.0000m  167.5884m 
  641.00000m  641.0000m  166.9229m 
  642.00000m  642.0000m  166.2678m 
  643.00000m  643.0000m  165.6227m 
  644.00000m  644.0000m  164.9874m 
  645.00000m  645.0000m  164.3616m 
  646.00000m  646.0000m  163.7452m 
  647.00000m  647.0000m  163.1379m 
  648.00000m  648.0000m  162.5395m 
  649.00000m  649.0000m  161.9497m 
  650.00000m  650.0000m  161.3685m 
  651.00000m  651.0000m  160.7956m 
  652.00000m  652.0000m  160.2307m 
  653.00000m  653.0000m  159.6738m 
  654.00000m  654.0000m  159.1247m 
  655.00000m  655.0000m  158.5831m 
  656.00000m  656.0000m  158.0490m 
  657.00000m  657.0000m  157.5221m 
  658.00000m  658.0000m  157.0022m 
  659.00000m  659.0000m  156.4894m 
  660.00000m  660.0000m  155.9833m 
  661.00000m  661.0000m  155.4839m 
  662.00000m  662.0000m  154.9910m 
  663.00000m  663.0000m  154.5045m 
  664.00000m  664.0000m  154.0242m 
  665.00000m  665.0000m  153.5500m 
  666.00000m  666.0000m  153.0819m 
  667.00000m  667.0000m  152.6196m 
  668.00000m  668.0000m  152.1631m 
  669.00000m  669.0000m  151.7122m 
  670.00000m  670.0000m  151.2669m 
  671.00000m  671.0000m  150.8270m 
  672.00000m  672.0000m  150.3925m 
  673.00000m  673.0000m  149.9631m 
  674.00000m  674.0000m  149.5389m 
  675.00000m  675.0000m  149.1197m 
  676.00000m  676.0000m  148.7055m 
  677.00000m  677.0000m  148.2961m 
  678.00000m  678.0000m  147.8914m 
  679.00000m  679.0000m  147.4915m 
  680.00000m  680.0000m  147.0961m 
  681.00000m  681.0000m  146.7052m 
  682.00000m  682.0000m  146.3187m 
  683.00000m  683.0000m  145.9366m 
  684.00000m  684.0000m  145.5587m 
  685.00000m  685.0000m  145.1851m 
  686.00000m  686.0000m  144.8156m 
  687.00000m  687.0000m  144.4501m 
  688.00000m  688.0000m  144.0886m 
  689.00000m  689.0000m  143.7310m 
  690.00000m  690.0000m  143.3772m 
  691.00000m  691.0000m  143.0273m 
  692.00000m  692.0000m  142.6810m 
  693.00000m  693.0000m  142.3385m 
  694.00000m  694.0000m  141.9995m 
  695.00000m  695.0000m  141.6641m 
  696.00000m  696.0000m  141.3321m 
  697.00000m  697.0000m  141.0036m 
  698.00000m  698.0000m  140.6785m 
  699.00000m  699.0000m  140.3566m 
  700.00000m  700.0000m  140.0381m 
  701.00000m  701.0000m  139.7227m 
  702.00000m  702.0000m  139.4106m 
  703.00000m  703.0000m  139.1015m 
  704.00000m  704.0000m  138.7956m 
  705.00000m  705.0000m  138.4926m 
  706.00000m  706.0000m  138.1926m 
  707.00000m  707.0000m  137.8956m 
  708.00000m  708.0000m  137.6014m 
  709.00000m  709.0000m  137.3101m 
  710.00000m  710.0000m  137.0217m 
  711.00000m  711.0000m  136.7359m 
  712.00000m  712.0000m  136.4529m 
  713.00000m  713.0000m  136.1726m 
  714.00000m  714.0000m  135.8949m 
  715.00000m  715.0000m  135.6199m 
  716.00000m  716.0000m  135.3474m 
  717.00000m  717.0000m  135.0774m 
  718.00000m  718.0000m  134.8099m 
  719.00000m  719.0000m  134.5449m 
  720.00000m  720.0000m  134.2824m 
  721.00000m  721.0000m  134.0222m 
  722.00000m  722.0000m  133.7644m 
  723.00000m  723.0000m  133.5089m 
  724.00000m  724.0000m  133.2558m 
  725.00000m  725.0000m  133.0048m 
  726.00000m  726.0000m  132.7562m 
  727.00000m  727.0000m  132.5097m 
  728.00000m  728.0000m  132.2654m 
  729.00000m  729.0000m  132.0233m 
  730.00000m  730.0000m  131.7833m 
  731.00000m  731.0000m  131.5454m 
  732.00000m  732.0000m  131.3095m 
  733.00000m  733.0000m  131.0757m 
  734.00000m  734.0000m  130.8439m 
  735.00000m  735.0000m  130.6141m 
  736.00000m  736.0000m  130.3863m 
  737.00000m  737.0000m  130.1604m 
  738.00000m  738.0000m  129.9364m 
  739.00000m  739.0000m  129.7143m 
  740.00000m  740.0000m  129.4940m 
  741.00000m  741.0000m  129.2756m 
  742.00000m  742.0000m  129.0590m 
  743.00000m  743.0000m  128.8443m 
  744.00000m  744.0000m  128.6313m 
  745.00000m  745.0000m  128.4200m 
  746.00000m  746.0000m  128.2105m 
  747.00000m  747.0000m  128.0027m 
  748.00000m  748.0000m  127.7966m 
  749.00000m  749.0000m  127.5921m 
  750.00000m  750.0000m  127.3893m 
  751.00000m  751.0000m  127.1882m 
  752.00000m  752.0000m  126.9886m 
  753.00000m  753.0000m  126.7907m 
  754.00000m  754.0000m  126.5943m 
  755.00000m  755.0000m  126.3995m 
  756.00000m  756.0000m  126.2062m 
  757.00000m  757.0000m  126.0144m 
  758.00000m  758.0000m  125.8242m 
  759.00000m  759.0000m  125.6354m 
  760.00000m  760.0000m  125.4481m 
  761.00000m  761.0000m  125.2622m 
  762.00000m  762.0000m  125.0778m 
  763.00000m  763.0000m  124.8948m 
  764.00000m  764.0000m  124.7132m 
  765.00000m  765.0000m  124.5330m 
  766.00000m  766.0000m  124.3542m 
  767.00000m  767.0000m  124.1767m 
  768.00000m  768.0000m  124.0006m 
  769.00000m  769.0000m  123.8258m 
  770.00000m  770.0000m  123.6523m 
  771.00000m  771.0000m  123.4801m 
  772.00000m  772.0000m  123.3092m 
  773.00000m  773.0000m  123.1396m 
  774.00000m  774.0000m  122.9713m 
  775.00000m  775.0000m  122.8041m 
  776.00000m  776.0000m  122.6383m 
  777.00000m  777.0000m  122.4736m 
  778.00000m  778.0000m  122.3101m 
  779.00000m  779.0000m  122.1479m 
  780.00000m  780.0000m  121.9868m 
  781.00000m  781.0000m  121.8269m 
  782.00000m  782.0000m  121.6681m 
  783.00000m  783.0000m  121.5105m 
  784.00000m  784.0000m  121.3540m 
  785.00000m  785.0000m  121.1987m 
  786.00000m  786.0000m  121.0444m 
  787.00000m  787.0000m  120.8913m 
  788.00000m  788.0000m  120.7392m 
  789.00000m  789.0000m  120.5882m 
  790.00000m  790.0000m  120.4383m 
  791.00000m  791.0000m  120.2895m 
  792.00000m  792.0000m  120.1417m 
  793.00000m  793.0000m  119.9949m 
  794.00000m  794.0000m  119.8491m 
  795.00000m  795.0000m  119.7044m 
  796.00000m  796.0000m  119.5606m 
  797.00000m  797.0000m  119.4179m 
  798.00000m  798.0000m  119.2762m 
  799.00000m  799.0000m  119.1354m 
  800.00000m  800.0000m  118.9956m 
  801.00000m  801.0000m  118.8567m 
  802.00000m  802.0000m  118.7188m 
  803.00000m  803.0000m  118.5818m 
  804.00000m  804.0000m  118.4458m 
  805.00000m  805.0000m  118.3107m 
  806.00000m  806.0000m  118.1765m 
  807.00000m  807.0000m  118.0432m 
  808.00000m  808.0000m  117.9108m 
  809.00000m  809.0000m  117.7793m 
  810.00000m  810.0000m  117.6486m 
  811.00000m  811.0000m  117.5189m 
  812.00000m  812.0000m  117.3900m 
  813.00000m  813.0000m  117.2619m 
  814.00000m  814.0000m  117.1347m 
  815.00000m  815.0000m  117.0083m 
  816.00000m  816.0000m  116.8828m 
  817.00000m  817.0000m  116.7581m 
  818.00000m  818.0000m  116.6342m 
  819.00000m  819.0000m  116.5111m 
  820.00000m  820.0000m  116.3889m 
  821.00000m  821.0000m  116.2674m 
  822.00000m  822.0000m  116.1467m 
  823.00000m  823.0000m  116.0268m 
  824.00000m  824.0000m  115.9076m 
  825.00000m  825.0000m  115.7892m 
  826.00000m  826.0000m  115.6716m 
  827.00000m  827.0000m  115.5548m 
  828.00000m  828.0000m  115.4386m 
  829.00000m  829.0000m  115.3233m 
  830.00000m  830.0000m  115.2086m 
  831.00000m  831.0000m  115.0947m 
  832.00000m  832.0000m  114.9815m 
  833.00000m  833.0000m  114.8690m 
  834.00000m  834.0000m  114.7573m 
  835.00000m  835.0000m  114.6462m 
  836.00000m  836.0000m  114.5358m 
  837.00000m  837.0000m  114.4262m 
  838.00000m  838.0000m  114.3172m 
  839.00000m  839.0000m  114.2089m 
  840.00000m  840.0000m  114.1012m 
  841.00000m  841.0000m  113.9943m 
  842.00000m  842.0000m  113.8879m 
  843.00000m  843.0000m  113.7823m 
  844.00000m  844.0000m  113.6773m 
  845.00000m  845.0000m  113.5729m 
  846.00000m  846.0000m  113.4692m 
  847.00000m  847.0000m  113.3661m 
  848.00000m  848.0000m  113.2637m 
  849.00000m  849.0000m  113.1619m 
  850.00000m  850.0000m  113.0607m 
  851.00000m  851.0000m  112.9601m 
  852.00000m  852.0000m  112.8601m 
  853.00000m  853.0000m  112.7607m 
  854.00000m  854.0000m  112.6620m 
  855.00000m  855.0000m  112.5638m 
  856.00000m  856.0000m  112.4662m 
  857.00000m  857.0000m  112.3692m 
  858.00000m  858.0000m  112.2728m 
  859.00000m  859.0000m  112.1769m 
  860.00000m  860.0000m  112.0817m 
  861.00000m  861.0000m  111.9870m 
  862.00000m  862.0000m  111.8928m 
  863.00000m  863.0000m  111.7992m 
  864.00000m  864.0000m  111.7062m 
  865.00000m  865.0000m  111.6137m 
  866.00000m  866.0000m  111.5218m 
  867.00000m  867.0000m  111.4304m 
  868.00000m  868.0000m  111.3395m 
  869.00000m  869.0000m  111.2492m 
  870.00000m  870.0000m  111.1594m 
  871.00000m  871.0000m  111.0702m 
  872.00000m  872.0000m  110.9814m 
  873.00000m  873.0000m  110.8932m 
  874.00000m  874.0000m  110.8055m 
  875.00000m  875.0000m  110.7183m 
  876.00000m  876.0000m  110.6316m 
  877.00000m  877.0000m  110.5454m 
  878.00000m  878.0000m  110.4597m 
  879.00000m  879.0000m  110.3744m 
  880.00000m  880.0000m  110.2897m 
  881.00000m  881.0000m  110.2055m 
  882.00000m  882.0000m  110.1217m 
  883.00000m  883.0000m  110.0385m 
  884.00000m  884.0000m  109.9557m 
  885.00000m  885.0000m  109.8733m 
  886.00000m  886.0000m  109.7915m 
  887.00000m  887.0000m  109.7101m 
  888.00000m  888.0000m  109.6292m 
  889.00000m  889.0000m  109.5487m 
  890.00000m  890.0000m  109.4687m 
  891.00000m  891.0000m  109.3891m 
  892.00000m  892.0000m  109.3100m 
  893.00000m  893.0000m  109.2314m 
  894.00000m  894.0000m  109.1531m 
  895.00000m  895.0000m  109.0753m 
  896.00000m  896.0000m  108.9980m 
  897.00000m  897.0000m  108.9211m 
  898.00000m  898.0000m  108.8446m 
  899.00000m  899.0000m  108.7685m 
  900.00000m  900.0000m  108.6929m 
  901.00000m  901.0000m  108.6177m 
  902.00000m  902.0000m  108.5429m 
  903.00000m  903.0000m  108.4685m 
  904.00000m  904.0000m  108.3945m 
  905.00000m  905.0000m  108.3209m 
  906.00000m  906.0000m  108.2478m 
  907.00000m  907.0000m  108.1750m 
  908.00000m  908.0000m  108.1027m 
  909.00000m  909.0000m  108.0307m 
  910.00000m  910.0000m  107.9591m 
  911.00000m  911.0000m  107.8880m 
  912.00000m  912.0000m  107.8172m 
  913.00000m  913.0000m  107.7468m 
  914.00000m  914.0000m  107.6768m 
  915.00000m  915.0000m  107.6071m 
  916.00000m  916.0000m  107.5379m 
  917.00000m  917.0000m  107.4690m 
  918.00000m  918.0000m  107.4005m 
  919.00000m  919.0000m  107.3324m 
  920.00000m  920.0000m  107.2646m 
  921.00000m  921.0000m  107.1972m 
  922.00000m  922.0000m  107.1302m 
  923.00000m  923.0000m  107.0635m 
  924.00000m  924.0000m  106.9972m 
  925.00000m  925.0000m  106.9312m 
  926.00000m  926.0000m  106.8656m 
  927.00000m  927.0000m  106.8004m 
  928.00000m  928.0000m  106.7355m 
  929.00000m  929.0000m  106.6709m 
  930.00000m  930.0000m  106.6067m 
  931.00000m  931.0000m  106.5429m 
  932.00000m  932.0000m  106.4793m 
  933.00000m  933.0000m  106.4161m 
  934.00000m  934.0000m  106.3533m 
  935.00000m  935.0000m  106.2908m 
  936.00000m  936.0000m  106.2286m 
  937.00000m  937.0000m  106.1667m 
  938.00000m  938.0000m  106.1052m 
  939.00000m  939.0000m  106.0440m 
  940.00000m  940.0000m  105.9831m 
  941.00000m  941.0000m  105.9225m 
  942.00000m  942.0000m  105.8623m 
  943.00000m  943.0000m  105.8024m 
  944.00000m  944.0000m  105.7427m 
  945.00000m  945.0000m  105.6834m 
  946.00000m  946.0000m  105.6245m 
  947.00000m  947.0000m  105.5658m 
  948.00000m  948.0000m  105.5074m 
  949.00000m  949.0000m  105.4493m 
  950.00000m  950.0000m  105.3916m 
  951.00000m  951.0000m  105.3341m 
  952.00000m  952.0000m  105.2769m 
  953.00000m  953.0000m  105.2201m 
  954.00000m  954.0000m  105.1635m 
  955.00000m  955.0000m  105.1072m 
  956.00000m  956.0000m  105.0512m 
  957.00000m  957.0000m  104.9955m 
  958.00000m  958.0000m  104.9401m 
  959.00000m  959.0000m  104.8850m 
  960.00000m  960.0000m  104.8302m 
  961.00000m  961.0000m  104.7756m 
  962.00000m  962.0000m  104.7213m 
  963.00000m  963.0000m  104.6673m 
  964.00000m  964.0000m  104.6136m 
  965.00000m  965.0000m  104.5602m 
  966.00000m  966.0000m  104.5070m 
  967.00000m  967.0000m  104.4541m 
  968.00000m  968.0000m  104.4015m 
  969.00000m  969.0000m  104.3491m 
  970.00000m  970.0000m  104.2971m 
  971.00000m  971.0000m  104.2452m 
  972.00000m  972.0000m  104.1937m 
  973.00000m  973.0000m  104.1424m 
  974.00000m  974.0000m  104.0914m 
  975.00000m  975.0000m  104.0406m 
  976.00000m  976.0000m  103.9901m 
  977.00000m  977.0000m  103.9398m 
  978.00000m  978.0000m  103.8898m 
  979.00000m  979.0000m  103.8401m 
  980.00000m  980.0000m  103.7906m 
  981.00000m  981.0000m  103.7413m 
  982.00000m  982.0000m  103.6923m 
  983.00000m  983.0000m  103.6436m 
  984.00000m  984.0000m  103.5951m 
  985.00000m  985.0000m  103.5468m 
  986.00000m  986.0000m  103.4988m 
  987.00000m  987.0000m  103.4510m 
  988.00000m  988.0000m  103.4035m 
  989.00000m  989.0000m  103.3562m 
  990.00000m  990.0000m  103.3092m 
  991.00000m  991.0000m  103.2623m 
  992.00000m  992.0000m  103.2158m 
  993.00000m  993.0000m  103.1694m 
  994.00000m  994.0000m  103.1233m 
  995.00000m  995.0000m  103.0774m 
  996.00000m  996.0000m  103.0317m 
  997.00000m  997.0000m  102.9863m 
  998.00000m  998.0000m  102.9411m 
  999.00000m  999.0000m  102.8961m 
    1.00000     1.0000   102.8514m 
y

          ***** job concluded
1****** HSPICE -- O-2018.09-SP2 win64 (Feb 25 2019) ******                      
 ******  
 

 ****** job statistics summary tnom=  25.000 temp=  25.000 ******

  ******  HSPICE Threads Information  ******

  Command Line Threads Count :     1
  Available CPU Count        :     8
  Actual Threads Count       :     1


  ******  Circuit Statistics  ******
  # nodes       =       8 # elements   =       4
  # resistors   =       1 # capacitors =       0 # inductors   =       0
  # mutual_inds =       0 # vccs       =       0 # vcvs        =       0
  # cccs        =       0 # ccvs       =       0 # volt_srcs   =       2
  # curr_srcs   =       0 # diodes     =       0 # bjts        =       0
  # jfets       =       0 # mosfets    =       1 # U elements  =       0
  # T elements  =       0 # W elements =       0 # B elements  =       0
  # S elements  =       0 # P elements =       0 # va device   =       0
  # vector_srcs =       0 # N elements =       0


  ******  Runtime Statistics (seconds)  ******

  analysis           time    # points   tot. iter  conv.iter
  op point           0.00           1           0
  dc sweep           0.03        1001        2004
  readin             0.01
  errchk             0.00
  setup              0.00
  output             0.00


           peak memory used         61.66 megabytes
           total cpu time            0.05 seconds
           total elapsed time        0.07 seconds
           job started at     12:56:22 11/03/2021
           job ended   at     12:56:22 11/03/2021


  
      

Element variations(Local):   element              parameter
 *****************************************************************
 ******  option summary
 ******
 runlvl  = 3         bypass  = 2.0000    
 ******
 

 ****** dc transfer curves tnom=  25.000 temp=  25.000 ******
x

 volt         voltage    voltage   
             vin        vout       
    0.          0.       999.9771m 
    1.00000m    1.0000m  999.9765m 
    2.00000m    2.0000m  999.9760m 
    3.00000m    3.0000m  999.9754m 
    4.00000m    4.0000m  999.9747m 
    5.00000m    5.0000m  999.9741m 
    6.00000m    6.0000m  999.9735m 
    7.00000m    7.0000m  999.9728m 
    8.00000m    8.0000m  999.9721m 
    9.00000m    9.0000m  999.9714m 
   10.00000m   10.0000m  999.9706m 
   11.00000m   11.0000m  999.9699m 
   12.00000m   12.0000m  999.9691m 
   13.00000m   13.0000m  999.9683m 
   14.00000m   14.0000m  999.9674m 
   15.00000m   15.0000m  999.9666m 
   16.00000m   16.0000m  999.9657m 
   17.00000m   17.0000m  999.9648m 
   18.00000m   18.0000m  999.9638m 
   19.00000m   19.0000m  999.9629m 
   20.00000m   20.0000m  999.9619m 
   21.00000m   21.0000m  999.9608m 
   22.00000m   22.0000m  999.9598m 
   23.00000m   23.0000m  999.9587m 
   24.00000m   24.0000m  999.9575m 
   25.00000m   25.0000m  999.9564m 
   26.00000m   26.0000m  999.9551m 
   27.00000m   27.0000m  999.9539m 
   28.00000m   28.0000m  999.9526m 
   29.00000m   29.0000m  999.9513m 
   30.00000m   30.0000m  999.9500m 
   31.00000m   31.0000m  999.9486m 
   32.00000m   32.0000m  999.9471m 
   33.00000m   33.0000m  999.9456m 
   34.00000m   34.0000m  999.9441m 
   35.00000m   35.0000m  999.9425m 
   36.00000m   36.0000m  999.9409m 
   37.00000m   37.0000m  999.9392m 
   38.00000m   38.0000m  999.9375m 
   39.00000m   39.0000m  999.9357m 
   40.00000m   40.0000m  999.9339m 
   41.00000m   41.0000m  999.9320m 
   42.00000m   42.0000m  999.9301m 
   43.00000m   43.0000m  999.9281m 
   44.00000m   44.0000m  999.9260m 
   45.00000m   45.0000m  999.9239m 
   46.00000m   46.0000m  999.9217m 
   47.00000m   47.0000m  999.9195m 
   48.00000m   48.0000m  999.9172m 
   49.00000m   49.0000m  999.9148m 
   50.00000m   50.0000m  999.9123m 
   51.00000m   51.0000m  999.9098m 
   52.00000m   52.0000m  999.9072m 
   53.00000m   53.0000m  999.9045m 
   54.00000m   54.0000m  999.9018m 
   55.00000m   55.0000m  999.8989m 
   56.00000m   56.0000m  999.8960m 
   57.00000m   57.0000m  999.8930m 
   58.00000m   58.0000m  999.8899m 
   59.00000m   59.0000m  999.8867m 
   60.00000m   60.0000m  999.8834m 
   61.00000m   61.0000m  999.8800m 
   62.00000m   62.0000m  999.8766m 
   63.00000m   63.0000m  999.8730m 
   64.00000m   64.0000m  999.8693m 
   65.00000m   65.0000m  999.8655m 
   66.00000m   66.0000m  999.8616m 
   67.00000m   67.0000m  999.8576m 
   68.00000m   68.0000m  999.8535m 
   69.00000m   69.0000m  999.8492m 
   70.00000m   70.0000m  999.8448m 
   71.00000m   71.0000m  999.8403m 
   72.00000m   72.0000m  999.8357m 
   73.00000m   73.0000m  999.8309m 
   74.00000m   74.0000m  999.8260m 
   75.00000m   75.0000m  999.8210m 
   76.00000m   76.0000m  999.8158m 
   77.00000m   77.0000m  999.8105m 
   78.00000m   78.0000m  999.8050m 
   79.00000m   79.0000m  999.7993m 
   80.00000m   80.0000m  999.7935m 
   81.00000m   81.0000m  999.7875m 
   82.00000m   82.0000m  999.7814m 
   83.00000m   83.0000m  999.7751m 
   84.00000m   84.0000m  999.7686m 
   85.00000m   85.0000m  999.7619m 
   86.00000m   86.0000m  999.7550m 
   87.00000m   87.0000m  999.7480m 
   88.00000m   88.0000m  999.7407m 
   89.00000m   89.0000m  999.7332m 
   90.00000m   90.0000m  999.7255m 
   91.00000m   91.0000m  999.7176m 
   92.00000m   92.0000m  999.7095m 
   93.00000m   93.0000m  999.7012m 
   94.00000m   94.0000m  999.6926m 
   95.00000m   95.0000m  999.6838m 
   96.00000m   96.0000m  999.6747m 
   97.00000m   97.0000m  999.6654m 
   98.00000m   98.0000m  999.6558m 
   99.00000m   99.0000m  999.6460m 
  100.00000m  100.0000m  999.6359m 
  101.00000m  101.0000m  999.6255m 
  102.00000m  102.0000m  999.6148m 
  103.00000m  103.0000m  999.6038m 
  104.00000m  104.0000m  999.5926m 
  105.00000m  105.0000m  999.5810m 
  106.00000m  106.0000m  999.5691m 
  107.00000m  107.0000m  999.5569m 
  108.00000m  108.0000m  999.5443m 
  109.00000m  109.0000m  999.5314m 
  110.00000m  110.0000m  999.5182m 
  111.00000m  111.0000m  999.5046m 
  112.00000m  112.0000m  999.4906m 
  113.00000m  113.0000m  999.4762m 
  114.00000m  114.0000m  999.4615m 
  115.00000m  115.0000m  999.4464m 
  116.00000m  116.0000m  999.4308m 
  117.00000m  117.0000m  999.4149m 
  118.00000m  118.0000m  999.3985m 
  119.00000m  119.0000m  999.3816m 
  120.00000m  120.0000m  999.3644m 
  121.00000m  121.0000m  999.3466m 
  122.00000m  122.0000m  999.3285m 
  123.00000m  123.0000m  999.3098m 
  124.00000m  124.0000m  999.2906m 
  125.00000m  125.0000m  999.2709m 
  126.00000m  126.0000m  999.2507m 
  127.00000m  127.0000m  999.2300m 
  128.00000m  128.0000m  999.2087m 
  129.00000m  129.0000m  999.1869m 
  130.00000m  130.0000m  999.1645m 
  131.00000m  131.0000m  999.1415m 
  132.00000m  132.0000m  999.1180m 
  133.00000m  133.0000m  999.0938m 
  134.00000m  134.0000m  999.0690m 
  135.00000m  135.0000m  999.0436m 
  136.00000m  136.0000m  999.0175m 
  137.00000m  137.0000m  998.9907m 
  138.00000m  138.0000m  998.9633m 
  139.00000m  139.0000m  998.9351m 
  140.00000m  140.0000m  998.9063m 
  141.00000m  141.0000m  998.8767m 
  142.00000m  142.0000m  998.8463m 
  143.00000m  143.0000m  998.8152m 
  144.00000m  144.0000m  998.7833m 
  145.00000m  145.0000m  998.7506m 
  146.00000m  146.0000m  998.7171m 
  147.00000m  147.0000m  998.6828m 
  148.00000m  148.0000m  998.6476m 
  149.00000m  149.0000m  998.6115m 
  150.00000m  150.0000m  998.5745m 
  151.00000m  151.0000m  998.5367m 
  152.00000m  152.0000m  998.4978m 
  153.00000m  153.0000m  998.4581m 
  154.00000m  154.0000m  998.4173m 
  155.00000m  155.0000m  998.3756m 
  156.00000m  156.0000m  998.3328m 
  157.00000m  157.0000m  998.2890m 
  158.00000m  158.0000m  998.2441m 
  159.00000m  159.0000m  998.1982m 
  160.00000m  160.0000m  998.1511m 
  161.00000m  161.0000m  998.1029m 
  162.00000m  162.0000m  998.0536m 
  163.00000m  163.0000m  998.0031m 
  164.00000m  164.0000m  997.9513m 
  165.00000m  165.0000m  997.8984m 
  166.00000m  166.0000m  997.8442m 
  167.00000m  167.0000m  997.7887m 
  168.00000m  168.0000m  997.7319m 
  169.00000m  169.0000m  997.6737m 
  170.00000m  170.0000m  997.6142m 
  171.00000m  171.0000m  997.5534m 
  172.00000m  172.0000m  997.4910m 
  173.00000m  173.0000m  997.4273m 
  174.00000m  174.0000m  997.3621m 
  175.00000m  175.0000m  997.2953m 
  176.00000m  176.0000m  997.2271m 
  177.00000m  177.0000m  997.1572m 
  178.00000m  178.0000m  997.0858m 
  179.00000m  179.0000m  997.0128m 
  180.00000m  180.0000m  996.9380m 
  181.00000m  181.0000m  996.8616m 
  182.00000m  182.0000m  996.7835m 
  183.00000m  183.0000m  996.7036m 
  184.00000m  184.0000m  996.6219m 
  185.00000m  185.0000m  996.5384m 
  186.00000m  186.0000m  996.4531m 
  187.00000m  187.0000m  996.3658m 
  188.00000m  188.0000m  996.2766m 
  189.00000m  189.0000m  996.1854m 
  190.00000m  190.0000m  996.0923m 
  191.00000m  191.0000m  995.9970m 
  192.00000m  192.0000m  995.8998m 
  193.00000m  193.0000m  995.8003m 
  194.00000m  194.0000m  995.6988m 
  195.00000m  195.0000m  995.5950m 
  196.00000m  196.0000m  995.4890m 
  197.00000m  197.0000m  995.3807m 
  198.00000m  198.0000m  995.2701m 
  199.00000m  199.0000m  995.1571m 
  200.00000m  200.0000m  995.0418m 
  201.00000m  201.0000m  994.9240m 
  202.00000m  202.0000m  994.8037m 
  203.00000m  203.0000m  994.6808m 
  204.00000m  204.0000m  994.5554m 
  205.00000m  205.0000m  994.4274m 
  206.00000m  206.0000m  994.2967m 
  207.00000m  207.0000m  994.1633m 
  208.00000m  208.0000m  994.0271m 
  209.00000m  209.0000m  993.8881m 
  210.00000m  210.0000m  993.7462m 
  211.00000m  211.0000m  993.6015m 
  212.00000m  212.0000m  993.4538m 
  213.00000m  213.0000m  993.3031m 
  214.00000m  214.0000m  993.1493m 
  215.00000m  215.0000m  992.9924m 
  216.00000m  216.0000m  992.8324m 
  217.00000m  217.0000m  992.6692m 
  218.00000m  218.0000m  992.5027m 
  219.00000m  219.0000m  992.3328m 
  220.00000m  220.0000m  992.1597m 
  221.00000m  221.0000m  991.9831m 
  222.00000m  222.0000m  991.8030m 
  223.00000m  223.0000m  991.6194m 
  224.00000m  224.0000m  991.4321m 
  225.00000m  225.0000m  991.2413m 
  226.00000m  226.0000m  991.0467m 
  227.00000m  227.0000m  990.8484m 
  228.00000m  228.0000m  990.6463m 
  229.00000m  229.0000m  990.4402m 
  230.00000m  230.0000m  990.2303m 
  231.00000m  231.0000m  990.0163m 
  232.00000m  232.0000m  989.7983m 
  233.00000m  233.0000m  989.5761m 
  234.00000m  234.0000m  989.3498m 
  235.00000m  235.0000m  989.1192m 
  236.00000m  236.0000m  988.8843m 
  237.00000m  237.0000m  988.6450m 
  238.00000m  238.0000m  988.4013m 
  239.00000m  239.0000m  988.1530m 
  240.00000m  240.0000m  987.9002m 
  241.00000m  241.0000m  987.6428m 
  242.00000m  242.0000m  987.3806m 
  243.00000m  243.0000m  987.1137m 
  244.00000m  244.0000m  986.8420m 
  245.00000m  245.0000m  986.5653m 
  246.00000m  246.0000m  986.2836m 
  247.00000m  247.0000m  985.9969m 
  248.00000m  248.0000m  985.7051m 
  249.00000m  249.0000m  985.4080m 
  250.00000m  250.0000m  985.1057m 
  251.00000m  251.0000m  984.7981m 
  252.00000m  252.0000m  984.4851m 
  253.00000m  253.0000m  984.1666m 
  254.00000m  254.0000m  983.8425m 
  255.00000m  255.0000m  983.5128m 
  256.00000m  256.0000m  983.1774m 
  257.00000m  257.0000m  982.8362m 
  258.00000m  258.0000m  982.4891m 
  259.00000m  259.0000m  982.1361m 
  260.00000m  260.0000m  981.7771m 
  261.00000m  261.0000m  981.4121m 
  262.00000m  262.0000m  981.0408m 
  263.00000m  263.0000m  980.6633m 
  264.00000m  264.0000m  980.2795m 
  265.00000m  265.0000m  979.8893m 
  266.00000m  266.0000m  979.4926m 
  267.00000m  267.0000m  979.0894m 
  268.00000m  268.0000m  978.6795m 
  269.00000m  269.0000m  978.2629m 
  270.00000m  270.0000m  977.8395m 
  271.00000m  271.0000m  977.4092m 
  272.00000m  272.0000m  976.9720m 
  273.00000m  273.0000m  976.5277m 
  274.00000m  274.0000m  976.0763m 
  275.00000m  275.0000m  975.6177m 
  276.00000m  276.0000m  975.1517m 
  277.00000m  277.0000m  974.6785m 
  278.00000m  278.0000m  974.1977m 
  279.00000m  279.0000m  973.7095m 
  280.00000m  280.0000m  973.2136m 
  281.00000m  281.0000m  972.7100m 
  282.00000m  282.0000m  972.1986m 
  283.00000m  283.0000m  971.6793m 
  284.00000m  284.0000m  971.1521m 
  285.00000m  285.0000m  970.6168m 
  286.00000m  286.0000m  970.0735m 
  287.00000m  287.0000m  969.5219m 
  288.00000m  288.0000m  968.9620m 
  289.00000m  289.0000m  968.3938m 
  290.00000m  290.0000m  967.8171m 
  291.00000m  291.0000m  967.2319m 
  292.00000m  292.0000m  966.6380m 
  293.00000m  293.0000m  966.0354m 
  294.00000m  294.0000m  965.4241m 
  295.00000m  295.0000m  964.8039m 
  296.00000m  296.0000m  964.1747m 
  297.00000m  297.0000m  963.5365m 
  298.00000m  298.0000m  962.8891m 
  299.00000m  299.0000m  962.2326m 
  300.00000m  300.0000m  961.5668m 
  301.00000m  301.0000m  960.8916m 
  302.00000m  302.0000m  960.2070m 
  303.00000m  303.0000m  959.5129m 
  304.00000m  304.0000m  958.8092m 
  305.00000m  305.0000m  958.0957m 
  306.00000m  306.0000m  957.3726m 
  307.00000m  307.0000m  956.6396m 
  308.00000m  308.0000m  955.8967m 
  309.00000m  309.0000m  955.1438m 
  310.00000m  310.0000m  954.3808m 
  311.00000m  311.0000m  953.6077m 
  312.00000m  312.0000m  952.8244m 
  313.00000m  313.0000m  952.0308m 
  314.00000m  314.0000m  951.2268m 
  315.00000m  315.0000m  950.4124m 
  316.00000m  316.0000m  949.5875m 
  317.00000m  317.0000m  948.7520m 
  318.00000m  318.0000m  947.9059m 
  319.00000m  319.0000m  947.0491m 
  320.00000m  320.0000m  946.1815m 
  321.00000m  321.0000m  945.3031m 
  322.00000m  322.0000m  944.4137m 
  323.00000m  323.0000m  943.5134m 
  324.00000m  324.0000m  942.6021m 
  325.00000m  325.0000m  941.6796m 
  326.00000m  326.0000m  940.7460m 
  327.00000m  327.0000m  939.8012m 
  328.00000m  328.0000m  938.8451m 
  329.00000m  329.0000m  937.8777m 
  330.00000m  330.0000m  936.8989m 
  331.00000m  331.0000m  935.9087m 
  332.00000m  332.0000m  934.9069m 
  333.00000m  333.0000m  933.8937m 
  334.00000m  334.0000m  932.8688m 
  335.00000m  335.0000m  931.8323m 
  336.00000m  336.0000m  930.7842m 
  337.00000m  337.0000m  929.7243m 
  338.00000m  338.0000m  928.6526m 
  339.00000m  339.0000m  927.5691m 
  340.00000m  340.0000m  926.4738m 
  341.00000m  341.0000m  925.3666m 
  342.00000m  342.0000m  924.2474m 
  343.00000m  343.0000m  923.1163m 
  344.00000m  344.0000m  921.9732m 
  345.00000m  345.0000m  920.8182m 
  346.00000m  346.0000m  919.6511m 
  347.00000m  347.0000m  918.4721m 
  348.00000m  348.0000m  917.2811m 
  349.00000m  349.0000m  916.0780m 
  350.00000m  350.0000m  914.8629m 
  351.00000m  351.0000m  913.6356m 
  352.00000m  352.0000m  912.3963m 
  353.00000m  353.0000m  911.1449m 
  354.00000m  354.0000m  909.8814m 
  355.00000m  355.0000m  908.6057m 
  356.00000m  356.0000m  907.3178m 
  357.00000m  357.0000m  906.0179m 
  358.00000m  358.0000m  904.7058m 
  359.00000m  359.0000m  903.3815m 
  360.00000m  360.0000m  902.0450m 
  361.00000m  361.0000m  900.6965m 
  362.00000m  362.0000m  899.3357m 
  363.00000m  363.0000m  897.9628m 
  364.00000m  364.0000m  896.5778m 
  365.00000m  365.0000m  895.1807m 
  366.00000m  366.0000m  893.7714m 
  367.00000m  367.0000m  892.3500m 
  368.00000m  368.0000m  890.9165m 
  369.00000m  369.0000m  889.4710m 
  370.00000m  370.0000m  888.0134m 
  371.00000m  371.0000m  886.5438m 
  372.00000m  372.0000m  885.0621m 
  373.00000m  373.0000m  883.5685m 
  374.00000m  374.0000m  882.0629m 
  375.00000m  375.0000m  880.5454m 
  376.00000m  376.0000m  879.0160m 
  377.00000m  377.0000m  877.4747m 
  378.00000m  378.0000m  875.9216m 
  379.00000m  379.0000m  874.3567m 
  380.00000m  380.0000m  872.7800m 
  381.00000m  381.0000m  871.1917m 
  382.00000m  382.0000m  869.5916m 
  383.00000m  383.0000m  867.9799m 
  384.00000m  384.0000m  866.3566m 
  385.00000m  385.0000m  864.7217m 
  386.00000m  386.0000m  863.0754m 
  387.00000m  387.0000m  861.4176m 
  388.00000m  388.0000m  859.7485m 
  389.00000m  389.0000m  858.0680m 
  390.00000m  390.0000m  856.3762m 
  391.00000m  391.0000m  854.6732m 
  392.00000m  392.0000m  852.9590m 
  393.00000m  393.0000m  851.2337m 
  394.00000m  394.0000m  849.4973m 
  395.00000m  395.0000m  847.7500m 
  396.00000m  396.0000m  845.9918m 
  397.00000m  397.0000m  844.2227m 
  398.00000m  398.0000m  842.4428m 
  399.00000m  399.0000m  840.6522m 
  400.00000m  400.0000m  838.8509m 
  401.00000m  401.0000m  837.0391m 
  402.00000m  402.0000m  835.2168m 
  403.00000m  403.0000m  833.3840m 
  404.00000m  404.0000m  831.5409m 
  405.00000m  405.0000m  829.6875m 
  406.00000m  406.0000m  827.8240m 
  407.00000m  407.0000m  825.9503m 
  408.00000m  408.0000m  824.0665m 
  409.00000m  409.0000m  822.1728m 
  410.00000m  410.0000m  820.2693m 
  411.00000m  411.0000m  818.3559m 
  412.00000m  412.0000m  816.4328m 
  413.00000m  413.0000m  814.5001m 
  414.00000m  414.0000m  812.5579m 
  415.00000m  415.0000m  810.6062m 
  416.00000m  416.0000m  808.6452m 
  417.00000m  417.0000m  806.6749m 
  418.00000m  418.0000m  804.6954m 
  419.00000m  419.0000m  802.7068m 
  420.00000m  420.0000m  800.7092m 
  421.00000m  421.0000m  798.7027m 
  422.00000m  422.0000m  796.6874m 
  423.00000m  423.0000m  794.6633m 
  424.00000m  424.0000m  792.6306m 
  425.00000m  425.0000m  790.5894m 
  426.00000m  426.0000m  788.5398m 
  427.00000m  427.0000m  786.4818m 
  428.00000m  428.0000m  784.4155m 
  429.00000m  429.0000m  782.3411m 
  430.00000m  430.0000m  780.2587m 
  431.00000m  431.0000m  778.1683m 
  432.00000m  432.0000m  776.0700m 
  433.00000m  433.0000m  773.9639m 
  434.00000m  434.0000m  771.8502m 
  435.00000m  435.0000m  769.7290m 
  436.00000m  436.0000m  767.6002m 
  437.00000m  437.0000m  765.4641m 
  438.00000m  438.0000m  763.3208m 
  439.00000m  439.0000m  761.1702m 
  440.00000m  440.0000m  759.0126m 
  441.00000m  441.0000m  756.8480m 
  442.00000m  442.0000m  754.6766m 
  443.00000m  443.0000m  752.4983m 
  444.00000m  444.0000m  750.3135m 
  445.00000m  445.0000m  748.1220m 
  446.00000m  446.0000m  745.9241m 
  447.00000m  447.0000m  743.7198m 
  448.00000m  448.0000m  741.5092m 
  449.00000m  449.0000m  739.2925m 
  450.00000m  450.0000m  737.0697m 
  451.00000m  451.0000m  734.8409m 
  452.00000m  452.0000m  732.6063m 
  453.00000m  453.0000m  730.3659m 
  454.00000m  454.0000m  728.1198m 
  455.00000m  455.0000m  725.8682m 
  456.00000m  456.0000m  723.6111m 
  457.00000m  457.0000m  721.3486m 
  458.00000m  458.0000m  719.0808m 
  459.00000m  459.0000m  716.8079m 
  460.00000m  460.0000m  714.5299m 
  461.00000m  461.0000m  712.2469m 
  462.00000m  462.0000m  709.9591m 
  463.00000m  463.0000m  707.6664m 
  464.00000m  464.0000m  705.3691m 
  465.00000m  465.0000m  703.0672m 
  466.00000m  466.0000m  700.7608m 
  467.00000m  467.0000m  698.4501m 
  468.00000m  468.0000m  696.1350m 
  469.00000m  469.0000m  693.8157m 
  470.00000m  470.0000m  691.4923m 
  471.00000m  471.0000m  689.1649m 
  472.00000m  472.0000m  686.8336m 
  473.00000m  473.0000m  684.4985m 
  474.00000m  474.0000m  682.1596m 
  475.00000m  475.0000m  679.8171m 
  476.00000m  476.0000m  677.4711m 
  477.00000m  477.0000m  675.1216m 
  478.00000m  478.0000m  672.7687m 
  479.00000m  479.0000m  670.4126m 
  480.00000m  480.0000m  668.0533m 
  481.00000m  481.0000m  665.6910m 
  482.00000m  482.0000m  663.3256m 
  483.00000m  483.0000m  660.9574m 
  484.00000m  484.0000m  658.5863m 
  485.00000m  485.0000m  656.2125m 
  486.00000m  486.0000m  653.8361m 
  487.00000m  487.0000m  651.4571m 
  488.00000m  488.0000m  649.0757m 
  489.00000m  489.0000m  646.6919m 
  490.00000m  490.0000m  644.3058m 
  491.00000m  491.0000m  641.9175m 
  492.00000m  492.0000m  639.5271m 
  493.00000m  493.0000m  637.1347m 
  494.00000m  494.0000m  634.7403m 
  495.00000m  495.0000m  632.3441m 
  496.00000m  496.0000m  629.9461m 
  497.00000m  497.0000m  627.5465m 
  498.00000m  498.0000m  625.1452m 
  499.00000m  499.0000m  622.7424m 
  500.00000m  500.0000m  620.3382m 
  501.00000m  501.0000m  617.9326m 
  502.00000m  502.0000m  615.5257m 
  503.00000m  503.0000m  613.1176m 
  504.00000m  504.0000m  610.7084m 
  505.00000m  505.0000m  608.2982m 
  506.00000m  506.0000m  605.8870m 
  507.00000m  507.0000m  603.4750m 
  508.00000m  508.0000m  601.0622m 
  509.00000m  509.0000m  598.6486m 
  510.00000m  510.0000m  596.2344m 
  511.00000m  511.0000m  593.8197m 
  512.00000m  512.0000m  591.4044m 
  513.00000m  513.0000m  588.9888m 
  514.00000m  514.0000m  586.5728m 
  515.00000m  515.0000m  584.1566m 
  516.00000m  516.0000m  581.7402m 
  517.00000m  517.0000m  579.3238m 
  518.00000m  518.0000m  576.9072m 
  519.00000m  519.0000m  574.4908m 
  520.00000m  520.0000m  572.0745m 
  521.00000m  521.0000m  569.6583m 
  522.00000m  522.0000m  567.2425m 
  523.00000m  523.0000m  564.8270m 
  524.00000m  524.0000m  562.4119m 
  525.00000m  525.0000m  559.9973m 
  526.00000m  526.0000m  557.5833m 
  527.00000m  527.0000m  555.1700m 
  528.00000m  528.0000m  552.7573m 
  529.00000m  529.0000m  550.3455m 
  530.00000m  530.0000m  547.9345m 
  531.00000m  531.0000m  545.5245m 
  532.00000m  532.0000m  543.1155m 
  533.00000m  533.0000m  540.7075m 
  534.00000m  534.0000m  538.3007m 
  535.00000m  535.0000m  535.8952m 
  536.00000m  536.0000m  533.4909m 
  537.00000m  537.0000m  531.0880m 
  538.00000m  538.0000m  528.6866m 
  539.00000m  539.0000m  526.2867m 
  540.00000m  540.0000m  523.8883m 
  541.00000m  541.0000m  521.4917m 
  542.00000m  542.0000m  519.0967m 
  543.00000m  543.0000m  516.7036m 
  544.00000m  544.0000m  514.3124m 
  545.00000m  545.0000m  511.9231m 
  546.00000m  546.0000m  509.5358m 
  547.00000m  547.0000m  507.1506m 
  548.00000m  548.0000m  504.7676m 
  549.00000m  549.0000m  502.3868m 
  550.00000m  550.0000m  500.0084m 
  551.00000m  551.0000m  497.6323m 
  552.00000m  552.0000m  495.2587m 
  553.00000m  553.0000m  492.8876m 
  554.00000m  554.0000m  490.5192m 
  555.00000m  555.0000m  488.1534m 
  556.00000m  556.0000m  485.7904m 
  557.00000m  557.0000m  483.4302m 
  558.00000m  558.0000m  481.0730m 
  559.00000m  559.0000m  478.7187m 
  560.00000m  560.0000m  476.3675m 
  561.00000m  561.0000m  474.0194m 
  562.00000m  562.0000m  471.6746m 
  563.00000m  563.0000m  469.3331m 
  564.00000m  564.0000m  466.9949m 
  565.00000m  565.0000m  464.6602m 
  566.00000m  566.0000m  462.3290m 
  567.00000m  567.0000m  460.0015m 
  568.00000m  568.0000m  457.6776m 
  569.00000m  569.0000m  455.3576m 
  570.00000m  570.0000m  453.0414m 
  571.00000m  571.0000m  450.7291m 
  572.00000m  572.0000m  448.4209m 
  573.00000m  573.0000m  446.1168m 
  574.00000m  574.0000m  443.8169m 
  575.00000m  575.0000m  441.5214m 
  576.00000m  576.0000m  439.2302m 
  577.00000m  577.0000m  436.9435m 
  578.00000m  578.0000m  434.6613m 
  579.00000m  579.0000m  432.3838m 
  580.00000m  580.0000m  430.1111m 
  581.00000m  581.0000m  427.8432m 
  582.00000m  582.0000m  425.5803m 
  583.00000m  583.0000m  423.3224m 
  584.00000m  584.0000m  421.0696m 
  585.00000m  585.0000m  418.8221m 
  586.00000m  586.0000m  416.5800m 
  587.00000m  587.0000m  414.3432m 
  588.00000m  588.0000m  412.1121m 
  589.00000m  589.0000m  409.8866m 
  590.00000m  590.0000m  407.6669m 
  591.00000m  591.0000m  405.4531m 
  592.00000m  592.0000m  403.2453m 
  593.00000m  593.0000m  401.0435m 
  594.00000m  594.0000m  398.8481m 
  595.00000m  595.0000m  396.6589m 
  596.00000m  596.0000m  394.4763m 
  597.00000m  597.0000m  392.3002m 
  598.00000m  598.0000m  390.1309m 
  599.00000m  599.0000m  387.9684m 
  600.00000m  600.0000m  385.8129m 
  601.00000m  601.0000m  383.6645m 
  602.00000m  602.0000m  381.5234m 
  603.00000m  603.0000m  379.3896m 
  604.00000m  604.0000m  377.2634m 
  605.00000m  605.0000m  375.1449m 
  606.00000m  606.0000m  373.0342m 
  607.00000m  607.0000m  370.9315m 
  608.00000m  608.0000m  368.8369m 
  609.00000m  609.0000m  366.7506m 
  610.00000m  610.0000m  364.6727m 
  611.00000m  611.0000m  362.6035m 
  612.00000m  612.0000m  360.5430m 
  613.00000m  613.0000m  358.4915m 
  614.00000m  614.0000m  356.4491m 
  615.00000m  615.0000m  354.4159m 
  616.00000m  616.0000m  352.3923m 
  617.00000m  617.0000m  350.3783m 
  618.00000m  618.0000m  348.3741m 
  619.00000m  619.0000m  346.3800m 
  620.00000m  620.0000m  344.3961m 
  621.00000m  621.0000m  342.4226m 
  622.00000m  622.0000m  340.4597m 
  623.00000m  623.0000m  338.5076m 
  624.00000m  624.0000m  336.5666m 
  625.00000m  625.0000m  334.6368m 
  626.00000m  626.0000m  332.7184m 
  627.00000m  627.0000m  330.8117m 
  628.00000m  628.0000m  328.9168m 
  629.00000m  629.0000m  327.0340m 
  630.00000m  630.0000m  325.1635m 
  631.00000m  631.0000m  323.3056m 
  632.00000m  632.0000m  321.4604m 
  633.00000m  633.0000m  319.6282m 
  634.00000m  634.0000m  317.8092m 
  635.00000m  635.0000m  316.0036m 
  636.00000m  636.0000m  314.2116m 
  637.00000m  637.0000m  312.4335m 
  638.00000m  638.0000m  310.6695m 
  639.00000m  639.0000m  308.9199m 
  640.00000m  640.0000m  307.1847m 
  641.00000m  641.0000m  305.4643m 
  642.00000m  642.0000m  303.7589m 
  643.00000m  643.0000m  302.0687m 
  644.00000m  644.0000m  300.3939m 
  645.00000m  645.0000m  298.7346m 
  646.00000m  646.0000m  297.0911m 
  647.00000m  647.0000m  295.4636m 
  648.00000m  648.0000m  293.8523m 
  649.00000m  649.0000m  292.2572m 
  650.00000m  650.0000m  290.6786m 
  651.00000m  651.0000m  289.1167m 
  652.00000m  652.0000m  287.5716m 
  653.00000m  653.0000m  286.0433m 
  654.00000m  654.0000m  284.5321m 
  655.00000m  655.0000m  283.0381m 
  656.00000m  656.0000m  281.5613m 
  657.00000m  657.0000m  280.1018m 
  658.00000m  658.0000m  278.6597m 
  659.00000m  659.0000m  277.2350m 
  660.00000m  660.0000m  275.8278m 
  661.00000m  661.0000m  274.4382m 
  662.00000m  662.0000m  273.0661m 
  663.00000m  663.0000m  271.7115m 
  664.00000m  664.0000m  270.3745m 
  665.00000m  665.0000m  269.0549m 
  666.00000m  666.0000m  267.7527m 
  667.00000m  667.0000m  266.4680m 
  668.00000m  668.0000m  265.2005m 
  669.00000m  669.0000m  263.9503m 
  670.00000m  670.0000m  262.7172m 
  671.00000m  671.0000m  261.5011m 
  672.00000m  672.0000m  260.3019m 
  673.00000m  673.0000m  259.1195m 
  674.00000m  674.0000m  257.9537m 
  675.00000m  675.0000m  256.8043m 
  676.00000m  676.0000m  255.6713m 
  677.00000m  677.0000m  254.5543m 
  678.00000m  678.0000m  253.4533m 
  679.00000m  679.0000m  252.3681m 
  680.00000m  680.0000m  251.2984m 
  681.00000m  681.0000m  250.2441m 
  682.00000m  682.0000m  249.2049m 
  683.00000m  683.0000m  248.1807m 
  684.00000m  684.0000m  247.1713m 
  685.00000m  685.0000m  246.1763m 
  686.00000m  686.0000m  245.1956m 
  687.00000m  687.0000m  244.2291m 
  688.00000m  688.0000m  243.2763m 
  689.00000m  689.0000m  242.3373m 
  690.00000m  690.0000m  241.4116m 
  691.00000m  691.0000m  240.4991m 
  692.00000m  692.0000m  239.5996m 
  693.00000m  693.0000m  238.7128m 
  694.00000m  694.0000m  237.8385m 
  695.00000m  695.0000m  236.9765m 
  696.00000m  696.0000m  236.1266m 
  697.00000m  697.0000m  235.2885m 
  698.00000m  698.0000m  234.4621m 
  699.00000m  699.0000m  233.6472m 
  700.00000m  700.0000m  232.8434m 
  701.00000m  701.0000m  232.0507m 
  702.00000m  702.0000m  231.2688m 
  703.00000m  703.0000m  230.4974m 
  704.00000m  704.0000m  229.7365m 
  705.00000m  705.0000m  228.9859m 
  706.00000m  706.0000m  228.2452m 
  707.00000m  707.0000m  227.5144m 
  708.00000m  708.0000m  226.7932m 
  709.00000m  709.0000m  226.0815m 
  710.00000m  710.0000m  225.3791m 
  711.00000m  711.0000m  224.6858m 
  712.00000m  712.0000m  224.0014m 
  713.00000m  713.0000m  223.3259m 
  714.00000m  714.0000m  222.6589m 
  715.00000m  715.0000m  222.0004m 
  716.00000m  716.0000m  221.3502m 
  717.00000m  717.0000m  220.7081m 
  718.00000m  718.0000m  220.0740m 
  719.00000m  719.0000m  219.4478m 
  720.00000m  720.0000m  218.8293m 
  721.00000m  721.0000m  218.2183m 
  722.00000m  722.0000m  217.6147m 
  723.00000m  723.0000m  217.0184m 
  724.00000m  724.0000m  216.4293m 
  725.00000m  725.0000m  215.8471m 
  726.00000m  726.0000m  215.2719m 
  727.00000m  727.0000m  214.7034m 
  728.00000m  728.0000m  214.1416m 
  729.00000m  729.0000m  213.5863m 
  730.00000m  730.0000m  213.0375m 
  731.00000m  731.0000m  212.4949m 
  732.00000m  732.0000m  211.9585m 
  733.00000m  733.0000m  211.4282m 
  734.00000m  734.0000m  210.9039m 
  735.00000m  735.0000m  210.3855m 
  736.00000m  736.0000m  209.8728m 
  737.00000m  737.0000m  209.3658m 
  738.00000m  738.0000m  208.8644m 
  739.00000m  739.0000m  208.3684m 
  740.00000m  740.0000m  207.8779m 
  741.00000m  741.0000m  207.3926m 
  742.00000m  742.0000m  206.9126m 
  743.00000m  743.0000m  206.4377m 
  744.00000m  744.0000m  205.9678m 
  745.00000m  745.0000m  205.5029m 
  746.00000m  746.0000m  205.0429m 
  747.00000m  747.0000m  204.5877m 
  748.00000m  748.0000m  204.1372m 
  749.00000m  749.0000m  203.6914m 
  750.00000m  750.0000m  203.2501m 
  751.00000m  751.0000m  202.8133m 
  752.00000m  752.0000m  202.3810m 
  753.00000m  753.0000m  201.9530m 
  754.00000m  754.0000m  201.5293m 
  755.00000m  755.0000m  201.1099m 
  756.00000m  756.0000m  200.6946m 
  757.00000m  757.0000m  200.2834m 
  758.00000m  758.0000m  199.8762m 
  759.00000m  759.0000m  199.4731m 
  760.00000m  760.0000m  199.0738m 
  761.00000m  761.0000m  198.6784m 
  762.00000m  762.0000m  198.2868m 
  763.00000m  763.0000m  197.8990m 
  764.00000m  764.0000m  197.5148m 
  765.00000m  765.0000m  197.1343m 
  766.00000m  766.0000m  196.7574m 
  767.00000m  767.0000m  196.3839m 
  768.00000m  768.0000m  196.0140m 
  769.00000m  769.0000m  195.6475m 
  770.00000m  770.0000m  195.2844m 
  771.00000m  771.0000m  194.9247m 
  772.00000m  772.0000m  194.5682m 
  773.00000m  773.0000m  194.2149m 
  774.00000m  774.0000m  193.8649m 
  775.00000m  775.0000m  193.5180m 
  776.00000m  776.0000m  193.1742m 
  777.00000m  777.0000m  192.8335m 
  778.00000m  778.0000m  192.4959m 
  779.00000m  779.0000m  192.1612m 
  780.00000m  780.0000m  191.8294m 
  781.00000m  781.0000m  191.5006m 
  782.00000m  782.0000m  191.1746m 
  783.00000m  783.0000m  190.8515m 
  784.00000m  784.0000m  190.5311m 
  785.00000m  785.0000m  190.2135m 
  786.00000m  786.0000m  189.8987m 
  787.00000m  787.0000m  189.5865m 
  788.00000m  788.0000m  189.2770m 
  789.00000m  789.0000m  188.9700m 
  790.00000m  790.0000m  188.6657m 
  791.00000m  791.0000m  188.3639m 
  792.00000m  792.0000m  188.0647m 
  793.00000m  793.0000m  187.7679m 
  794.00000m  794.0000m  187.4736m 
  795.00000m  795.0000m  187.1817m 
  796.00000m  796.0000m  186.8922m 
  797.00000m  797.0000m  186.6051m 
  798.00000m  798.0000m  186.3203m 
  799.00000m  799.0000m  186.0378m 
  800.00000m  800.0000m  185.7576m 
  801.00000m  801.0000m  185.4797m 
  802.00000m  802.0000m  185.2040m 
  803.00000m  803.0000m  184.9305m 
  804.00000m  804.0000m  184.6591m 
  805.00000m  805.0000m  184.3899m 
  806.00000m  806.0000m  184.1229m 
  807.00000m  807.0000m  183.8579m 
  808.00000m  808.0000m  183.5950m 
  809.00000m  809.0000m  183.3341m 
  810.00000m  810.0000m  183.0753m 
  811.00000m  811.0000m  182.8185m 
  812.00000m  812.0000m  182.5637m 
  813.00000m  813.0000m  182.3108m 
  814.00000m  814.0000m  182.0598m 
  815.00000m  815.0000m  181.8108m 
  816.00000m  816.0000m  181.5637m 
  817.00000m  817.0000m  181.3184m 
  818.00000m  818.0000m  181.0750m 
  819.00000m  819.0000m  180.8334m 
  820.00000m  820.0000m  180.5936m 
  821.00000m  821.0000m  180.3556m 
  822.00000m  822.0000m  180.1194m 
  823.00000m  823.0000m  179.8850m 
  824.00000m  824.0000m  179.6522m 
  825.00000m  825.0000m  179.4212m 
  826.00000m  826.0000m  179.1919m 
  827.00000m  827.0000m  178.9642m 
  828.00000m  828.0000m  178.7383m 
  829.00000m  829.0000m  178.5139m 
  830.00000m  830.0000m  178.2912m 
  831.00000m  831.0000m  178.0701m 
  832.00000m  832.0000m  177.8505m 
  833.00000m  833.0000m  177.6326m 
  834.00000m  834.0000m  177.4162m 
  835.00000m  835.0000m  177.2013m 
  836.00000m  836.0000m  176.9880m 
  837.00000m  837.0000m  176.7762m 
  838.00000m  838.0000m  176.5659m 
  839.00000m  839.0000m  176.3570m 
  840.00000m  840.0000m  176.1497m 
  841.00000m  841.0000m  175.9437m 
  842.00000m  842.0000m  175.7392m 
  843.00000m  843.0000m  175.5362m 
  844.00000m  844.0000m  175.3345m 
  845.00000m  845.0000m  175.1342m 
  846.00000m  846.0000m  174.9353m 
  847.00000m  847.0000m  174.7378m 
  848.00000m  848.0000m  174.5416m 
  849.00000m  849.0000m  174.3468m 
  850.00000m  850.0000m  174.1533m 
  851.00000m  851.0000m  173.9611m 
  852.00000m  852.0000m  173.7702m 
  853.00000m  853.0000m  173.5806m 
  854.00000m  854.0000m  173.3922m 
  855.00000m  855.0000m  173.2052m 
  856.00000m  856.0000m  173.0193m 
  857.00000m  857.0000m  172.8348m 
  858.00000m  858.0000m  172.6514m 
  859.00000m  859.0000m  172.4693m 
  860.00000m  860.0000m  172.2883m 
  861.00000m  861.0000m  172.1086m 
  862.00000m  862.0000m  171.9300m 
  863.00000m  863.0000m  171.7526m 
  864.00000m  864.0000m  171.5764m 
  865.00000m  865.0000m  171.4013m 
  866.00000m  866.0000m  171.2274m 
  867.00000m  867.0000m  171.0546m 
  868.00000m  868.0000m  170.8829m 
  869.00000m  869.0000m  170.7123m 
  870.00000m  870.0000m  170.5429m 
  871.00000m  871.0000m  170.3745m 
  872.00000m  872.0000m  170.2072m 
  873.00000m  873.0000m  170.0409m 
  874.00000m  874.0000m  169.8757m 
  875.00000m  875.0000m  169.7116m 
  876.00000m  876.0000m  169.5485m 
  877.00000m  877.0000m  169.3864m 
  878.00000m  878.0000m  169.2254m 
  879.00000m  879.0000m  169.0654m 
  880.00000m  880.0000m  168.9064m 
  881.00000m  881.0000m  168.7484m 
  882.00000m  882.0000m  168.5913m 
  883.00000m  883.0000m  168.4353m 
  884.00000m  884.0000m  168.2802m 
  885.00000m  885.0000m  168.1261m 
  886.00000m  886.0000m  167.9729m 
  887.00000m  887.0000m  167.8207m 
  888.00000m  888.0000m  167.6694m 
  889.00000m  889.0000m  167.5191m 
  890.00000m  890.0000m  167.3696m 
  891.00000m  891.0000m  167.2211m 
  892.00000m  892.0000m  167.0735m 
  893.00000m  893.0000m  166.9268m 
  894.00000m  894.0000m  166.7810m 
  895.00000m  895.0000m  166.6361m 
  896.00000m  896.0000m  166.4920m 
  897.00000m  897.0000m  166.3488m 
  898.00000m  898.0000m  166.2065m 
  899.00000m  899.0000m  166.0651m 
  900.00000m  900.0000m  165.9244m 
  901.00000m  901.0000m  165.7847m 
  902.00000m  902.0000m  165.6457m 
  903.00000m  903.0000m  165.5076m 
  904.00000m  904.0000m  165.3703m 
  905.00000m  905.0000m  165.2339m 
  906.00000m  906.0000m  165.0982m 
  907.00000m  907.0000m  164.9633m 
  908.00000m  908.0000m  164.8293m 
  909.00000m  909.0000m  164.6960m 
  910.00000m  910.0000m  164.5635m 
  911.00000m  911.0000m  164.4318m 
  912.00000m  912.0000m  164.3008m 
  913.00000m  913.0000m  164.1707m 
  914.00000m  914.0000m  164.0412m 
  915.00000m  915.0000m  163.9126m 
  916.00000m  916.0000m  163.7847m 
  917.00000m  917.0000m  163.6575m 
  918.00000m  918.0000m  163.5310m 
  919.00000m  919.0000m  163.4053m 
  920.00000m  920.0000m  163.2803m 
  921.00000m  921.0000m  163.1561m 
  922.00000m  922.0000m  163.0325m 
  923.00000m  923.0000m  162.9097m 
  924.00000m  924.0000m  162.7875m 
  925.00000m  925.0000m  162.6661m 
  926.00000m  926.0000m  162.5453m 
  927.00000m  927.0000m  162.4252m 
  928.00000m  928.0000m  162.3058m 
  929.00000m  929.0000m  162.1871m 
  930.00000m  930.0000m  162.0691m 
  931.00000m  931.0000m  161.9517m 
  932.00000m  932.0000m  161.8350m 
  933.00000m  933.0000m  161.7190m 
  934.00000m  934.0000m  161.6035m 
  935.00000m  935.0000m  161.4888m 
  936.00000m  936.0000m  161.3747m 
  937.00000m  937.0000m  161.2612m 
  938.00000m  938.0000m  161.1483m 
  939.00000m  939.0000m  161.0361m 
  940.00000m  940.0000m  160.9245m 
  941.00000m  941.0000m  160.8136m 
  942.00000m  942.0000m  160.7032m 
  943.00000m  943.0000m  160.5935m 
  944.00000m  944.0000m  160.4843m 
  945.00000m  945.0000m  160.3758m 
  946.00000m  946.0000m  160.2678m 
  947.00000m  947.0000m  160.1605m 
  948.00000m  948.0000m  160.0537m 
  949.00000m  949.0000m  159.9475m 
  950.00000m  950.0000m  159.8419m 
  951.00000m  951.0000m  159.7369m 
  952.00000m  952.0000m  159.6325m 
  953.00000m  953.0000m  159.5286m 
  954.00000m  954.0000m  159.4253m 
  955.00000m  955.0000m  159.3225m 
  956.00000m  956.0000m  159.2203m 
  957.00000m  957.0000m  159.1187m 
  958.00000m  958.0000m  159.0176m 
  959.00000m  959.0000m  158.9170m 
  960.00000m  960.0000m  158.8170m 
  961.00000m  961.0000m  158.7175m 
  962.00000m  962.0000m  158.6186m 
  963.00000m  963.0000m  158.5202m 
  964.00000m  964.0000m  158.4223m 
  965.00000m  965.0000m  158.3249m 
  966.00000m  966.0000m  158.2281m 
  967.00000m  967.0000m  158.1318m 
  968.00000m  968.0000m  158.0360m 
  969.00000m  969.0000m  157.9407m 
  970.00000m  970.0000m  157.8459m 
  971.00000m  971.0000m  157.7516m 
  972.00000m  972.0000m  157.6578m 
  973.00000m  973.0000m  157.5645m 
  974.00000m  974.0000m  157.4717m 
  975.00000m  975.0000m  157.3793m 
  976.00000m  976.0000m  157.2875m 
  977.00000m  977.0000m  157.1962m 
  978.00000m  978.0000m  157.1053m 
  979.00000m  979.0000m  157.0149m 
  980.00000m  980.0000m  156.9250m 
  981.00000m  981.0000m  156.8355m 
  982.00000m  982.0000m  156.7465m 
  983.00000m  983.0000m  156.6580m 
  984.00000m  984.0000m  156.5700m 
  985.00000m  985.0000m  156.4824m 
  986.00000m  986.0000m  156.3952m 
  987.00000m  987.0000m  156.3085m 
  988.00000m  988.0000m  156.2223m 
  989.00000m  989.0000m  156.1365m 
  990.00000m  990.0000m  156.0511m 
  991.00000m  991.0000m  155.9662m 
  992.00000m  992.0000m  155.8817m 
  993.00000m  993.0000m  155.7977m 
  994.00000m  994.0000m  155.7141m 
  995.00000m  995.0000m  155.6309m 
  996.00000m  996.0000m  155.5482m 
  997.00000m  997.0000m  155.4658m 
  998.00000m  998.0000m  155.3839m 
  999.00000m  999.0000m  155.3024m 
    1.00000     1.0000   155.2214m 
y

          ***** job concluded
 ******  
 

 ****** job statistics summary tnom=  25.000 temp=  25.000 ******

  ******  Circuit Statistics  ******
  # nodes       =       8 # elements   =       4
  # resistors   =       1 # capacitors =       0 # inductors   =       0
  # mutual_inds =       0 # vccs       =       0 # vcvs        =       0
  # cccs        =       0 # ccvs       =       0 # volt_srcs   =       2
  # curr_srcs   =       0 # diodes     =       0 # bjts        =       0
  # jfets       =       0 # mosfets    =       1 # U elements  =       0
  # T elements  =       0 # W elements =       0 # B elements  =       0
  # S elements  =       0 # P elements =       0 # va device   =       0
  # vector_srcs =       0 # N elements =       0


  ******  Runtime Statistics (seconds)  ******

  analysis           time    # points   tot. iter  conv.iter
  op point           0.00           1           0
  dc sweep           0.03        1001        2004
  readin             0.00
  errchk             0.00
  setup              0.00
  output             0.00


           peak memory used         61.66 megabytes
           total cpu time            0.04 seconds
           total elapsed time        0.06 seconds
           job started at     12:56:22 11/03/2021
           job ended   at     12:56:22 11/03/2021


  lic: Release hspice token(s) 
 lic: total license checkout elapse time:        0.02(s)
