 ****** HSPICE -- O-2018.09-SP2 win64 (Feb 25 2019) ******                      
  Copyright (c) 1986 - 2021 by Synopsys, Inc. All Rights Reserved.              
  This software and the associated documentation are proprietary
  to Synopsys, Inc. This software may only be used in accordance
  with the terms and conditions of a written license agreement with
  Synopsys, Inc. All other use, reproduction, or distribution of
  this software is strictly prohibited.
  Input File: cascode_amplifier_c.sp                                            
  Command line options: C:\synopsys\Hspice_O-2018.09-SP2\WIN64\hspice.com -i cascode_amplifier_c.sp -o C:\mdsy\proj1\cascode_amplifier_c.lis
  Start time: Thu Dec  2 23:41:02 2021
  lic:  
  lic: FLEXlm: SDK_11.7.3 
  lic: USER:   admin                HOSTNAME: DESKTOP-3KO7170 
  lic: HOSTID: "d83bbfb49802"       PID:      8448 
  lic: Using FLEXlm license file: 
  lic: 27000@DESKTOP-3KO7170 
  lic: Checkout 1 hspice 
  lic: License/Maintenance for hspice will expire on 30-dec-2029/2019.2019 
  lic: 1(in_use)/99(total) FLOATING license(s) on SERVER 27000@DESKTOP-3KO7170 
  lic:   
 

  
      

Element variations(Local):   element              parameter
 **info** set option symb=1 internally to help for convergence.
 *****************************************************************
 ******  option summary
 ******
 runlvl  = 3         bypass  = 2.0000    
 **info** dc convergence successful at Newton-Raphson method 
1****** HSPICE -- O-2018.09-SP2 win64 (Feb 25 2019) ******                      
 ******  
 

 ****** operating point information tnom=  25.000 temp=  25.000 ******
 ****** operating point status is all       simulation time is     0.     
    node    =voltage      node    =voltage      node    =voltage

 +0:vb1     = 850.2462m 0:vb2     = 842.7342m 0:vb3     =   1.1117 
 +0:vb4     = 625.3065m 0:vdd     =   1.8000  0:vin     =   1.1517 
 +0:vm10s   =   1.5852  0:vm13s   =   1.5808  0:vm15d   = 186.4374m
 +0:vm17s   =   1.5779  0:vm2d    = 595.3274m 0:vm5d    = 192.8536m
 +0:vm7s    =   1.5831  0:vout    =   1.0000 


 **** voltage sources

 subckt                                   
 element  0:vdd      0:vin      0:vout    
  volts      1.8000     1.1517     1.0000 
  current -933.1848u    0.      -416.5136n
  power      1.6797m    0.       416.5136n

     total voltage source power dissipation=    1.6801m       watts



 **** current sources

 subckt             
 element  0:i1      
  volts      1.2047 
  current  130.0000u
  power   -156.6074u


     total current source power dissipation=-156.6074u       watts


 **** mosfets


 subckt                                                                    
 element  0:m2       0:m4       0:m6       0:m8       0:m10      0:m11     
 model    0:nch.3    0:nch.3    0:pch.8    0:nch.3    0:pch.4    0:pch.4   
 region   Saturation Saturation Saturation Saturation Saturation Saturation
  id       130.0000u  131.5121u -131.5121u  132.9480u -132.9483u -132.9483u
  ibs     -2.117e-20 -2.141e-20  2.018e-20 -2.165e-20   50.9481a  1.898e-20
  ibd     -204.2222a   -1.9661p   11.8826a -311.0809p   51.4199a   51.0323a
  vgs      595.3274m  595.3274m -957.2658m  595.3274m -742.4926m -688.2832m
  vds      595.3274m  842.7342m -957.2658m    1.1117  -473.5100m -214.7732m
  vbs        0.         0.         0.         0.       214.7732m    0.     
  vth      483.2954m  483.2384m -486.6602m  483.1764m -556.0807m -488.9843m
  vdsat    156.6250m  156.6683m -367.7348m  156.7154m -185.9220m -190.9002m
  vod      112.0321m  112.0891m -470.6055m  112.1511m -186.4119m -199.2989m
  beta      13.3517m   13.3518m    1.2747m   13.3520m    6.6856m    6.8492m
  gam eff  511.7809m  511.7809m  608.0220m  511.7808m  599.3569m  601.1098m
  gm         1.5468m    1.5612m  463.5180u    1.5734m    1.1420m    1.0214m
  gds        6.8570u    5.6107u   16.1250u    5.1379u   35.4576u  141.9651u
  gmb      441.6620u  445.7438u  158.3211u  449.2043u  348.4481u  345.0110u
  cdtot     36.1141f   34.5981f    4.8110f   33.3348f   24.5942f   28.3626f
  cgtot    195.3641f  195.2723f    8.8257f  195.2455f   42.5523f   43.0828f
  cstot    236.1322f  236.2061f   12.5748f  236.2461f   58.0083f   60.7016f
  cbtot    117.6033f  116.1567f   10.0610f  114.9134f   47.3986f   53.0288f
  cgs      163.4941f  163.4138f    7.2604f  163.3882f   34.3913f   34.5267f
  cgd       11.7585f   11.7187f    1.3001f   11.7072f    6.5067f    6.8845f



 subckt                                                                    
 element  0:m12      0:m13      0:m14      0:m15      0:m16      0:m17     
 model    0:nch.8    0:pch.4    0:pch.4    0:nch.8    0:nch.8    0:pch.4   
 region   Saturation Saturation Saturation Saturation Saturation Saturation
  id       133.5615u -133.5615u -133.5615u  133.9417u  133.9417u -133.9417u
  ibs     -2.656e-20   50.9500a  1.907e-20 -2.257e-20  -25.4620a   50.9510a
  ibd     -243.5854f   51.8273a   51.0394a  -25.4697a  -25.5129a  187.2801a
  vgs      850.2462m -738.0533m -688.2832m  625.3065m  663.8088m -735.1765m
  vds      850.2462m -730.5414m -219.2125m  186.4374m  438.8691m -952.6043m
  vbs        0.       219.2125m    0.         0.      -186.4374m  222.0892m
  vth      513.0624m -556.5176m -488.9735m  503.2063m  553.3045m -556.6004m
  vdsat    238.3276m -182.5502m -190.9071m  126.3471m  122.5567m -180.4964m
  vod      337.1837m -181.5357m -199.3097m  122.1002m  110.5043m -178.5761m
  beta       2.9920m    6.6896m    6.8492m   16.3835m   16.2584m    6.6924m
  gam eff  785.9254m  599.3226m  601.1098m  742.7498m  752.5891m  599.3004m
  gm       573.0189u    1.1745m    1.0304m    1.3800m    1.4888m    1.1899m
  gds       16.5046u   23.8136u  134.4497u  133.6248u   40.1702u   19.9689u
  gmb      164.3310u  355.9027u  347.9030u  391.7570u  376.5201u  358.6871u
  cdtot      1.8576f   23.4806f   28.2551f   10.2538f    9.0726f   22.7136f
  cgtot      3.5734f   42.4678f   43.0644f   17.1795f   16.9049f   42.4227f
  cstot      4.7545f   57.8829f   60.6999f   22.1304f   21.1268f   57.7899f
  cbtot      3.7532f   46.2836f   52.9900f   18.7304f   16.8346f   45.4944f
  cgs        2.7370f   34.2740f   34.5278f   12.7966f   12.6082f   34.1961f
  cgd      582.1569a    6.4885f    6.8588f    3.0147f    2.9147f    6.4851f



 subckt                                                                    
 element  0:m18      0:m5       0:m3       0:m7       0:m9       0:m1      
 model    0:pch.4    0:nch.4    0:nch.8    0:pch.4    0:pch.4    0:pch.4   
 region   Saturation Saturation Saturation Saturation Saturation Saturation
  id      -133.9417u  271.6377u  133.6623u -133.2457u -133.2457u -137.9751u
  ibs      1.912e-20 -4.474e-20  -25.4660a   50.9490a  1.903e-20  1.982e-20
  ibd       51.0439a  -49.7894a   -2.0841p   51.5930a   51.0357a  245.3554p
  vgs     -688.2832m  625.3065m  657.3925m -740.3696m -688.2832m -648.3000m
  vds     -222.0892m  192.8536m  807.1464m -583.1038m -216.8962m   -1.6071 
  vbs        0.         0.      -192.8536m  216.8962m    0.         0.     
  vth     -488.9665m  502.6492m  553.9184m -556.3374m -488.9791m -504.4610m
  vdsat   -190.9115m  126.5140m  118.8726m -184.2780m -190.9035m -149.2619m
  vod     -199.3167m  122.6573m  103.4741m -184.0322m -199.3041m -143.8390m
  beta       6.8492m   32.8684m   16.2769m    6.6874m    6.8492m    8.4212m
  gam eff  601.1098m  740.5981m  752.9118m  599.3405m  601.1098m  676.1708m
  gm         1.0359m    2.7975m    1.5154m    1.1590m    1.0258m    1.3908m
  gds      129.9416u  252.7216u   27.5393u   28.7767u  138.2836u   20.3949u
  gmb      349.6805u  792.7447u  378.6297u  352.5391u  346.4172u  452.4387u
  cdtot     28.1889f   20.2685f    8.5529f   24.0785f   28.3103f   16.1818f
  cgtot     43.0532f   34.3518f   16.7967f   42.5084f   43.0738f   25.0304f
  cstot     60.6989f   44.1140f   20.9658f   57.9514f   60.7007f   37.7789f
  cbtot     52.9653f   37.0769f   16.2987f   46.8905f   53.0102f   33.5303f
  cgs       34.5283f   25.6203f   12.4615f   34.3354f   34.5273f   18.7805f
  cgd        6.8433f    6.0133f    2.9096f    6.4948f    6.8719f    4.8686f



 **info** dc convergence successful at Newton-Raphson method 
 ******  
 

 ****** ac analysis tnom=  25.000 temp=  25.000 ******
 ****** operating point status is all       simulation time is     0.     

   *** parameter vbias =    0.000E+00 ***

    node    =voltage      node    =voltage      node    =voltage

 +0:vb1     = 850.2462m 0:vb2     = 842.7342m 0:vb3     =   1.1117 
 +0:vb4     = 625.3065m 0:vdd     =   1.8000  0:vin     =   1.1517 
 +0:vm10s   =   1.5852  0:vm13s   =   1.5808  0:vm15d   = 186.4374m
 +0:vm17s   =   1.5779  0:vm2d    = 595.3274m 0:vm5d    =  17.9431m
 +0:vm7s    =   1.5715  0:vout    =   0.     


 **** voltage sources

 subckt                                   
 element  0:vdd      0:vin      0:vout    
  volts      1.8000     1.1517     0.     
  current -938.2277u    0.       214.8906u
  power      1.6888m    0.         0.     

     total voltage source power dissipation=    1.6888m       watts



 **** current sources

 subckt             
 element  0:i1      
  volts      1.2047 
  current  130.0000u
  power   -156.6074u


     total current source power dissipation=-156.6074u       watts


 **** mosfets


 subckt                                                                    
 element  0:m2       0:m4       0:m6       0:m8       0:m10      0:m11     
 model    0:nch.3    0:nch.3    0:pch.8    0:nch.3    0:pch.4    0:pch.4   
 region   Saturation Saturation Saturation Saturation Saturation Saturation
  id       130.0000u  131.5121u -131.5121u  132.9480u -132.9483u -132.9483u
  ibs     -2.117e-20 -2.141e-20  2.018e-20 -2.165e-20   50.9481a  1.898e-20
  ibd     -204.2222a   -1.9661p   11.8826a -311.0809p   51.4199a   51.0323a
  vgs      595.3274m  595.3274m -957.2658m  595.3274m -742.4926m -688.2832m
  vds      595.3274m  842.7342m -957.2658m    1.1117  -473.5100m -214.7732m
  vbs        0.         0.         0.         0.       214.7732m    0.     
  vth      483.2954m  483.2384m -486.6602m  483.1764m -556.0807m -488.9843m
  vdsat    156.6250m  156.6683m -367.7348m  156.7154m -185.9220m -190.9002m
  vod      112.0321m  112.0891m -470.6055m  112.1511m -186.4119m -199.2989m
  beta      13.3517m   13.3518m    1.2747m   13.3520m    6.6856m    6.8492m
  gam eff  511.7809m  511.7809m  608.0220m  511.7808m  599.3569m  601.1098m
  gm         1.5468m    1.5612m  463.5180u    1.5734m    1.1420m    1.0214m
  gds        6.8570u    5.6107u   16.1250u    5.1379u   35.4576u  141.9651u
  gmb      441.6620u  445.7438u  158.3211u  449.2043u  348.4481u  345.0110u
  cdtot     36.1141f   34.5981f    4.8110f   33.3348f   24.5942f   28.3626f
  cgtot    195.3641f  195.2723f    8.8257f  195.2455f   42.5523f   43.0828f
  cstot    236.1322f  236.2061f   12.5748f  236.2461f   58.0083f   60.7016f
  cbtot    117.6033f  116.1567f   10.0610f  114.9134f   47.3986f   53.0288f
  cgs      163.4941f  163.4138f    7.2604f  163.3882f   34.3913f   34.5267f
  cgd       11.7585f   11.7187f    1.3001f   11.7072f    6.5067f    6.8845f



 subckt                                                                    
 element  0:m12      0:m13      0:m14      0:m15      0:m16      0:m17     
 model    0:nch.8    0:pch.4    0:pch.4    0:nch.8    0:nch.8    0:pch.4   
 region   Saturation Saturation Saturation Saturation Saturation Saturation
  id       133.5615u -133.5615u -133.5615u  133.9417u  133.9417u -133.9417u
  ibs     -2.656e-20   50.9500a  1.907e-20 -2.257e-20  -25.4620a   50.9510a
  ibd     -243.5854f   51.8273a   51.0394a  -25.4697a  -25.5129a  187.2801a
  vgs      850.2462m -738.0533m -688.2832m  625.3065m  663.8088m -735.1765m
  vds      850.2462m -730.5414m -219.2125m  186.4374m  438.8691m -952.6043m
  vbs        0.       219.2125m    0.         0.      -186.4374m  222.0892m
  vth      513.0624m -556.5176m -488.9735m  503.2063m  553.3045m -556.6004m
  vdsat    238.3276m -182.5502m -190.9071m  126.3471m  122.5567m -180.4964m
  vod      337.1837m -181.5357m -199.3097m  122.1002m  110.5043m -178.5761m
  beta       2.9920m    6.6896m    6.8492m   16.3835m   16.2584m    6.6924m
  gam eff  785.9254m  599.3226m  601.1098m  742.7498m  752.5891m  599.3004m
  gm       573.0189u    1.1745m    1.0304m    1.3800m    1.4888m    1.1899m
  gds       16.5046u   23.8136u  134.4497u  133.6248u   40.1702u   19.9689u
  gmb      164.3310u  355.9027u  347.9030u  391.7570u  376.5201u  358.6871u
  cdtot      1.8576f   23.4806f   28.2551f   10.2538f    9.0726f   22.7136f
  cgtot      3.5734f   42.4678f   43.0644f   17.1795f   16.9049f   42.4227f
  cstot      4.7545f   57.8829f   60.6999f   22.1304f   21.1268f   57.7899f
  cbtot      3.7532f   46.2836f   52.9900f   18.7304f   16.8346f   45.4944f
  cgs        2.7370f   34.2740f   34.5278f   12.7966f   12.6082f   34.1961f
  cgd      582.1569a    6.4885f    6.8588f    3.0147f    2.9147f    6.4851f



 subckt                                                                    
 element  0:m18      0:m5       0:m3       0:m7       0:m9       0:m1      
 model    0:pch.4    0:nch.4    0:nch.8    0:pch.4    0:pch.4    0:pch.4   
 region   Saturation Linear     Linear     Saturation Saturation Saturation
  id      -133.9417u   61.3734u  -80.1401u -134.7504u -134.7504u -141.5120u
  ibs      1.912e-20 -1.011e-20  -12.8000a   50.9530a  1.924e-20  2.033e-20
  ibd       51.0439a  -25.0254a -1.351e-20  114.5813p   51.0539a    1.4816n
  vgs     -688.2832m  625.3065m  832.3031m -728.7196m -688.2832m -648.3000m
  vds     -222.0892m   17.9431m  -17.9431m   -1.5715  -228.5462m   -1.7821 
  vbs        0.         0.       -17.9431m  228.5462m    0.         0.     
  vth     -488.9665m  502.9425m  503.4911m -556.3376m -488.9508m -503.6738m
  vdsat   -190.9115m  126.3706m  237.1503m -176.1729m -190.9215m -149.6314m
  vod     -199.3167m  122.3640m  346.7551m -172.3820m -199.3324m -144.6262m
  beta       6.8492m   32.8666m   15.7151m    6.6994m    6.8493m    8.4222m
  gam eff  601.1098m  740.5971m  742.7493m  599.2506m  601.1098m  676.1708m
  gm         1.0359m  444.4901u  203.7966u    1.2143m    1.0475m    1.4163m
  gds      129.9416u    3.1302m    4.2662m   16.1412u  120.7681u   20.1091u
  gmb      349.6805u  130.3662u   64.2570u  361.0915u  353.4139u  458.2183u
  cdtot     28.1889f   45.9944f   26.1584f   21.0962f   28.0494f   15.8826f
  cgtot     43.0532f   38.4014f   20.4658f   42.3275f   43.0300f   25.0316f
  cstot     60.6989f   47.5113f   28.7809f   57.5574f   60.6974f   37.7606f
  cbtot     52.9653f   39.2308f   19.8526f   43.8143f   52.9105f   33.2297f
  cgs       34.5283f   21.9125f    9.5065f   34.0109f   34.5290f   18.7645f
  cgd        6.8433f   14.8938f   10.5063f    6.4827f    6.8116f    4.8686f




          ***** job concluded
 **info** dc convergence successful at Newton-Raphson method 
 ******  
 

 ****** ac analysis tnom=  25.000 temp=  25.000 ******
 ****** operating point status is all       simulation time is     0.     

   *** parameter vbias =    5.000E-02 ***

    node    =voltage      node    =voltage      node    =voltage

 +0:vb1     = 850.2462m 0:vb2     = 842.7342m 0:vb3     =   1.1117 
 +0:vb4     = 625.3065m 0:vdd     =   1.8000  0:vin     =   1.1517 
 +0:vm10s   =   1.5852  0:vm13s   =   1.5808  0:vm15d   = 186.4374m
 +0:vm17s   =   1.5779  0:vm2d    = 595.3274m 0:vm5d    =  49.1506m
 +0:vm7s    =   1.5719  0:vout    =  50.0000m


 **** voltage sources

 subckt                                   
 element  0:vdd      0:vin      0:vout    
  volts      1.8000     1.1517    50.0000m
  current -937.5421u    0.       131.3763u
  power      1.6876m    0.        -6.5688u

     total voltage source power dissipation=    1.6810m       watts



 **** current sources

 subckt             
 element  0:i1      
  volts      1.2047 
  current  130.0000u
  power   -156.6074u


     total current source power dissipation=-156.6074u       watts


 **** mosfets


 subckt                                                                    
 element  0:m2       0:m4       0:m6       0:m8       0:m10      0:m11     
 model    0:nch.3    0:nch.3    0:pch.8    0:nch.3    0:pch.4    0:pch.4   
 region   Saturation Saturation Saturation Saturation Saturation Saturation
  id       130.0000u  131.5121u -131.5121u  132.9480u -132.9483u -132.9483u
  ibs     -2.117e-20 -2.141e-20  2.018e-20 -2.165e-20   50.9481a  1.898e-20
  ibd     -204.2222a   -1.9661p   11.8826a -311.0809p   51.4199a   51.0323a
  vgs      595.3274m  595.3274m -957.2658m  595.3274m -742.4926m -688.2832m
  vds      595.3274m  842.7342m -957.2658m    1.1117  -473.5100m -214.7732m
  vbs        0.         0.         0.         0.       214.7732m    0.     
  vth      483.2954m  483.2384m -486.6602m  483.1764m -556.0807m -488.9843m
  vdsat    156.6250m  156.6683m -367.7348m  156.7154m -185.9220m -190.9002m
  vod      112.0321m  112.0891m -470.6055m  112.1511m -186.4119m -199.2989m
  beta      13.3517m   13.3518m    1.2747m   13.3520m    6.6856m    6.8492m
  gam eff  511.7809m  511.7809m  608.0220m  511.7808m  599.3569m  601.1098m
  gm         1.5468m    1.5612m  463.5180u    1.5734m    1.1420m    1.0214m
  gds        6.8570u    5.6107u   16.1250u    5.1379u   35.4576u  141.9651u
  gmb      441.6620u  445.7438u  158.3211u  449.2043u  348.4481u  345.0110u
  cdtot     36.1141f   34.5981f    4.8110f   33.3348f   24.5942f   28.3626f
  cgtot    195.3641f  195.2723f    8.8257f  195.2455f   42.5523f   43.0828f
  cstot    236.1322f  236.2061f   12.5748f  236.2461f   58.0083f   60.7016f
  cbtot    117.6033f  116.1567f   10.0610f  114.9134f   47.3986f   53.0288f
  cgs      163.4941f  163.4138f    7.2604f  163.3882f   34.3913f   34.5267f
  cgd       11.7585f   11.7187f    1.3001f   11.7072f    6.5067f    6.8845f



 subckt                                                                    
 element  0:m12      0:m13      0:m14      0:m15      0:m16      0:m17     
 model    0:nch.8    0:pch.4    0:pch.4    0:nch.8    0:nch.8    0:pch.4   
 region   Saturation Saturation Saturation Saturation Saturation Saturation
  id       133.5615u -133.5615u -133.5615u  133.9417u  133.9417u -133.9417u
  ibs     -2.656e-20   50.9500a  1.907e-20 -2.257e-20  -25.4620a   50.9510a
  ibd     -243.5854f   51.8273a   51.0394a  -25.4697a  -25.5129a  187.2801a
  vgs      850.2462m -738.0533m -688.2832m  625.3065m  663.8088m -735.1765m
  vds      850.2462m -730.5414m -219.2125m  186.4374m  438.8691m -952.6043m
  vbs        0.       219.2125m    0.         0.      -186.4374m  222.0892m
  vth      513.0624m -556.5176m -488.9735m  503.2063m  553.3045m -556.6004m
  vdsat    238.3276m -182.5502m -190.9071m  126.3471m  122.5567m -180.4964m
  vod      337.1837m -181.5357m -199.3097m  122.1002m  110.5043m -178.5761m
  beta       2.9920m    6.6896m    6.8492m   16.3835m   16.2584m    6.6924m
  gam eff  785.9254m  599.3226m  601.1098m  742.7498m  752.5891m  599.3004m
  gm       573.0189u    1.1745m    1.0304m    1.3800m    1.4888m    1.1899m
  gds       16.5046u   23.8136u  134.4497u  133.6248u   40.1702u   19.9689u
  gmb      164.3310u  355.9027u  347.9030u  391.7570u  376.5201u  358.6871u
  cdtot      1.8576f   23.4806f   28.2551f   10.2538f    9.0726f   22.7136f
  cgtot      3.5734f   42.4678f   43.0644f   17.1795f   16.9049f   42.4227f
  cstot      4.7545f   57.8829f   60.6999f   22.1304f   21.1268f   57.7899f
  cbtot      3.7532f   46.2836f   52.9900f   18.7304f   16.8346f   45.4944f
  cgs        2.7370f   34.2740f   34.5278f   12.7966f   12.6082f   34.1961f
  cgd      582.1569a    6.4885f    6.8588f    3.0147f    2.9147f    6.4851f



 subckt                                                                    
 element  0:m18      0:m5       0:m3       0:m7       0:m9       0:m1      
 model    0:pch.4    0:nch.4    0:nch.8    0:pch.4    0:pch.4    0:pch.4   
 region   Saturation Linear     Linear     Saturation Saturation Saturation
  id      -133.9417u  144.2021u    3.3168u -134.6930u -134.6930u -140.8842u
  ibs      1.912e-20 -2.375e-20  -21.7186a   50.9529a  1.923e-20  2.024e-20
  ibd       51.0439a  -42.4454a  -21.8408a   60.5971p   51.0532a    1.1049n
  vgs     -688.2832m  625.3065m  801.0956m -729.1931m -688.2832m -648.3000m
  vds     -222.0892m   49.1506m  849.3813u   -1.5219  -228.0726m   -1.7508 
  vbs        0.         0.       -49.1506m  228.0726m    0.         0.     
  vth     -488.9665m  502.8913m  517.5325m -556.3728m -488.9520m -503.8143m
  vdsat   -190.9115m  126.3936m  209.3730m -176.4801m -190.9208m -149.5661m
  vod     -199.3167m  122.4152m  283.5630m -172.8203m -199.3312m -144.4857m
  beta       6.8492m   32.8670m   15.8680m    6.6988m    6.8493m    8.4221m
  gam eff  601.1098m  740.5975m  745.4356m  599.2543m  601.1098m  676.1708m
  gm         1.0359m    1.1425m   10.3622u    1.2129m    1.0467m    1.4118m
  gds      129.9416u    2.2026m    3.9006m   16.2909u  121.3992u   20.1355u
  gmb      349.6805u  331.8728u    3.1131u  361.0375u  353.1515u  457.2135u
  cdtot     28.1889f   33.7577f   29.1174f   21.2051f   28.0593f   15.9339f
  cgtot     43.0532f   36.8505f   20.3757f   42.3345f   43.0316f   25.0314f
  cstot     60.6989f   45.3554f   25.9072f   57.5753f   60.6975f   37.7639f
  cbtot     52.9653f   38.5953f   19.4717f   43.9280f   52.9145f   33.2813f
  cgs       34.5283f   24.2697f   10.1822f   34.0250f   34.5289f   18.7674f
  cgd        6.8433f   10.5589f    9.7082f    6.4828f    6.8137f    4.8686f




          ***** job concluded
 **info** dc convergence successful at Newton-Raphson method 
 ******  
 

 ****** ac analysis tnom=  25.000 temp=  25.000 ******
 ****** operating point status is all       simulation time is     0.     

   *** parameter vbias =    1.000E-01 ***

    node    =voltage      node    =voltage      node    =voltage

 +0:vb1     = 850.2462m 0:vb2     = 842.7342m 0:vb3     =   1.1117 
 +0:vb4     = 625.3065m 0:vdd     =   1.8000  0:vin     =   1.1517 
 +0:vm10s   =   1.5852  0:vm13s   =   1.5808  0:vm15d   = 186.4374m
 +0:vm17s   =   1.5779  0:vm2d    = 595.3274m 0:vm5d    =  80.9975m
 +0:vm7s    =   1.5724  0:vout    = 100.0000m


 **** voltage sources

 subckt                                   
 element  0:vdd      0:vin      0:vout    
  volts      1.8000     1.1517   100.0000m
  current -936.8418u    0.        73.7322u
  power      1.6863m    0.        -7.3732u

     total voltage source power dissipation=    1.6789m       watts



 **** current sources

 subckt             
 element  0:i1      
  volts      1.2047 
  current  130.0000u
  power   -156.6074u


     total current source power dissipation=-156.6074u       watts


 **** mosfets


 subckt                                                                    
 element  0:m2       0:m4       0:m6       0:m8       0:m10      0:m11     
 model    0:nch.3    0:nch.3    0:pch.8    0:nch.3    0:pch.4    0:pch.4   
 region   Saturation Saturation Saturation Saturation Saturation Saturation
  id       130.0000u  131.5121u -131.5121u  132.9480u -132.9483u -132.9483u
  ibs     -2.117e-20 -2.141e-20  2.018e-20 -2.165e-20   50.9481a  1.898e-20
  ibd     -204.2222a   -1.9661p   11.8826a -311.0809p   51.4199a   51.0323a
  vgs      595.3274m  595.3274m -957.2658m  595.3274m -742.4926m -688.2832m
  vds      595.3274m  842.7342m -957.2658m    1.1117  -473.5100m -214.7732m
  vbs        0.         0.         0.         0.       214.7732m    0.     
  vth      483.2954m  483.2384m -486.6602m  483.1764m -556.0807m -488.9843m
  vdsat    156.6250m  156.6683m -367.7348m  156.7154m -185.9220m -190.9002m
  vod      112.0321m  112.0891m -470.6055m  112.1511m -186.4119m -199.2989m
  beta      13.3517m   13.3518m    1.2747m   13.3520m    6.6856m    6.8492m
  gam eff  511.7809m  511.7809m  608.0220m  511.7808m  599.3569m  601.1098m
  gm         1.5468m    1.5612m  463.5180u    1.5734m    1.1420m    1.0214m
  gds        6.8570u    5.6107u   16.1250u    5.1379u   35.4576u  141.9651u
  gmb      441.6620u  445.7438u  158.3211u  449.2043u  348.4481u  345.0110u
  cdtot     36.1141f   34.5981f    4.8110f   33.3348f   24.5942f   28.3626f
  cgtot    195.3641f  195.2723f    8.8257f  195.2455f   42.5523f   43.0828f
  cstot    236.1322f  236.2061f   12.5748f  236.2461f   58.0083f   60.7016f
  cbtot    117.6033f  116.1567f   10.0610f  114.9134f   47.3986f   53.0288f
  cgs      163.4941f  163.4138f    7.2604f  163.3882f   34.3913f   34.5267f
  cgd       11.7585f   11.7187f    1.3001f   11.7072f    6.5067f    6.8845f



 subckt                                                                    
 element  0:m12      0:m13      0:m14      0:m15      0:m16      0:m17     
 model    0:nch.8    0:pch.4    0:pch.4    0:nch.8    0:nch.8    0:pch.4   
 region   Saturation Saturation Saturation Saturation Saturation Saturation
  id       133.5615u -133.5615u -133.5615u  133.9417u  133.9417u -133.9417u
  ibs     -2.656e-20   50.9500a  1.907e-20 -2.257e-20  -25.4620a   50.9510a
  ibd     -243.5854f   51.8273a   51.0394a  -25.4697a  -25.5129a  187.2801a
  vgs      850.2462m -738.0533m -688.2832m  625.3065m  663.8088m -735.1765m
  vds      850.2462m -730.5414m -219.2125m  186.4374m  438.8691m -952.6043m
  vbs        0.       219.2125m    0.         0.      -186.4374m  222.0892m
  vth      513.0624m -556.5176m -488.9735m  503.2063m  553.3045m -556.6004m
  vdsat    238.3276m -182.5502m -190.9071m  126.3471m  122.5567m -180.4964m
  vod      337.1837m -181.5357m -199.3097m  122.1002m  110.5043m -178.5761m
  beta       2.9920m    6.6896m    6.8492m   16.3835m   16.2584m    6.6924m
  gam eff  785.9254m  599.3226m  601.1098m  742.7498m  752.5891m  599.3004m
  gm       573.0189u    1.1745m    1.0304m    1.3800m    1.4888m    1.1899m
  gds       16.5046u   23.8136u  134.4497u  133.6248u   40.1702u   19.9689u
  gmb      164.3310u  355.9027u  347.9030u  391.7570u  376.5201u  358.6871u
  cdtot      1.8576f   23.4806f   28.2551f   10.2538f    9.0726f   22.7136f
  cgtot      3.5734f   42.4678f   43.0644f   17.1795f   16.9049f   42.4227f
  cstot      4.7545f   57.8829f   60.6999f   22.1304f   21.1268f   57.7899f
  cbtot      3.7532f   46.2836f   52.9900f   18.7304f   16.8346f   45.4944f
  cgs        2.7370f   34.2740f   34.5278f   12.7966f   12.6082f   34.1961f
  cgd      582.1569a    6.4885f    6.8588f    3.0147f    2.9147f    6.4851f



 subckt                                                                    
 element  0:m18      0:m5       0:m3       0:m7       0:m9       0:m1      
 model    0:pch.4    0:nch.4    0:nch.8    0:pch.4    0:pch.4    0:pch.4   
 region   Saturation Linear     Linear     Saturation Saturation Saturation
  id      -133.9417u  201.1459u   60.9026u -134.6348u -134.6348u -140.2425u
  ibs      1.912e-20 -3.313e-20  -24.3915a   50.9528a  1.922e-20  2.015e-20
  ibd       51.0439a  -47.6721a  -24.9601a   30.5633p   51.0524a  809.7529p
  vgs     -688.2832m  625.3065m  769.2486m -729.6716m -688.2832m -648.3000m
  vds     -222.0892m   80.9975m   19.0025m   -1.4724  -227.5942m   -1.7190 
  vbs        0.         0.       -80.9975m  227.5942m    0.         0.     
  vth     -488.9665m  502.8384m  526.3463m -556.4064m -488.9531m -503.9576m
  vdsat   -190.9115m  126.4186m  190.3159m -176.7917m -190.9201m -149.4992m
  vod     -199.3167m  122.4681m  242.9024m -173.2651m -199.3301m -144.3424m
  beta       6.8492m   32.8673m   15.9648m    6.6983m    6.8493m    8.4219m
  gam eff  601.1098m  740.5977m  747.1396m  599.2579m  601.1098m  676.1708m
  gm         1.0359m    1.7513m  234.6068u    1.2113m    1.0459m    1.4072m
  gds      129.9416u    1.4031m    3.0146m   16.4590u  122.0432u   20.1739u
  gmb      349.6805u  504.0403u   67.6441u  360.9681u  352.8846u  456.1777u
  cdtot     28.1889f   26.0312f   26.7909f   21.3170f   28.0693f   15.9872f
  cgtot     43.0532f   35.5409f   20.1539f   42.3416f   43.0333f   25.0311f
  cstot     60.6989f   44.4038f   25.1000f   57.5933f   60.6976f   37.7672f
  cbtot     52.9653f   38.0496f   19.0756f   44.0447f   52.9185f   33.3348f
  cgs       34.5283f   25.3091f   10.6626f   34.0392f   34.5289f   18.7703f
  cgd        6.8433f    7.8488f    8.9452f    6.4829f    6.8160f    4.8686f




          ***** job concluded
 **info** dc convergence successful at Newton-Raphson method 
 ******  
 

 ****** ac analysis tnom=  25.000 temp=  25.000 ******
 ****** operating point status is all       simulation time is     0.     

   *** parameter vbias =    1.500E-01 ***

    node    =voltage      node    =voltage      node    =voltage

 +0:vb1     = 850.2462m 0:vb2     = 842.7342m 0:vb3     =   1.1117 
 +0:vb4     = 625.3065m 0:vdd     =   1.8000  0:vin     =   1.1517 
 +0:vm10s   =   1.5852  0:vm13s   =   1.5808  0:vm15d   = 186.4374m
 +0:vm17s   =   1.5779  0:vm2d    = 595.3274m 0:vm5d    = 112.2199m
 +0:vm7s    =   1.5729  0:vout    = 150.0000m


 **** voltage sources

 subckt                                   
 element  0:vdd      0:vin      0:vout    
  volts      1.8000     1.1517   150.0000m
  current -936.1519u    0.        38.9992u
  power      1.6851m    0.        -5.8499u

     total voltage source power dissipation=    1.6792m       watts



 **** current sources

 subckt             
 element  0:i1      
  volts      1.2047 
  current  130.0000u
  power   -156.6074u


     total current source power dissipation=-156.6074u       watts


 **** mosfets


 subckt                                                                    
 element  0:m2       0:m4       0:m6       0:m8       0:m10      0:m11     
 model    0:nch.3    0:nch.3    0:pch.8    0:nch.3    0:pch.4    0:pch.4   
 region   Saturation Saturation Saturation Saturation Saturation Saturation
  id       130.0000u  131.5121u -131.5121u  132.9480u -132.9483u -132.9483u
  ibs     -2.117e-20 -2.141e-20  2.018e-20 -2.165e-20   50.9481a  1.898e-20
  ibd     -204.2222a   -1.9661p   11.8826a -311.0809p   51.4199a   51.0323a
  vgs      595.3274m  595.3274m -957.2658m  595.3274m -742.4926m -688.2832m
  vds      595.3274m  842.7342m -957.2658m    1.1117  -473.5100m -214.7732m
  vbs        0.         0.         0.         0.       214.7732m    0.     
  vth      483.2954m  483.2384m -486.6602m  483.1764m -556.0807m -488.9843m
  vdsat    156.6250m  156.6683m -367.7348m  156.7154m -185.9220m -190.9002m
  vod      112.0321m  112.0891m -470.6055m  112.1511m -186.4119m -199.2989m
  beta      13.3517m   13.3518m    1.2747m   13.3520m    6.6856m    6.8492m
  gam eff  511.7809m  511.7809m  608.0220m  511.7808m  599.3569m  601.1098m
  gm         1.5468m    1.5612m  463.5180u    1.5734m    1.1420m    1.0214m
  gds        6.8570u    5.6107u   16.1250u    5.1379u   35.4576u  141.9651u
  gmb      441.6620u  445.7438u  158.3211u  449.2043u  348.4481u  345.0110u
  cdtot     36.1141f   34.5981f    4.8110f   33.3348f   24.5942f   28.3626f
  cgtot    195.3641f  195.2723f    8.8257f  195.2455f   42.5523f   43.0828f
  cstot    236.1322f  236.2061f   12.5748f  236.2461f   58.0083f   60.7016f
  cbtot    117.6033f  116.1567f   10.0610f  114.9134f   47.3986f   53.0288f
  cgs      163.4941f  163.4138f    7.2604f  163.3882f   34.3913f   34.5267f
  cgd       11.7585f   11.7187f    1.3001f   11.7072f    6.5067f    6.8845f



 subckt                                                                    
 element  0:m12      0:m13      0:m14      0:m15      0:m16      0:m17     
 model    0:nch.8    0:pch.4    0:pch.4    0:nch.8    0:nch.8    0:pch.4   
 region   Saturation Saturation Saturation Saturation Saturation Saturation
  id       133.5615u -133.5615u -133.5615u  133.9417u  133.9417u -133.9417u
  ibs     -2.656e-20   50.9500a  1.907e-20 -2.257e-20  -25.4620a   50.9510a
  ibd     -243.5854f   51.8273a   51.0394a  -25.4697a  -25.5129a  187.2801a
  vgs      850.2462m -738.0533m -688.2832m  625.3065m  663.8088m -735.1765m
  vds      850.2462m -730.5414m -219.2125m  186.4374m  438.8691m -952.6043m
  vbs        0.       219.2125m    0.         0.      -186.4374m  222.0892m
  vth      513.0624m -556.5176m -488.9735m  503.2063m  553.3045m -556.6004m
  vdsat    238.3276m -182.5502m -190.9071m  126.3471m  122.5567m -180.4964m
  vod      337.1837m -181.5357m -199.3097m  122.1002m  110.5043m -178.5761m
  beta       2.9920m    6.6896m    6.8492m   16.3835m   16.2584m    6.6924m
  gam eff  785.9254m  599.3226m  601.1098m  742.7498m  752.5891m  599.3004m
  gm       573.0189u    1.1745m    1.0304m    1.3800m    1.4888m    1.1899m
  gds       16.5046u   23.8136u  134.4497u  133.6248u   40.1702u   19.9689u
  gmb      164.3310u  355.9027u  347.9030u  391.7570u  376.5201u  358.6871u
  cdtot      1.8576f   23.4806f   28.2551f   10.2538f    9.0726f   22.7136f
  cgtot      3.5734f   42.4678f   43.0644f   17.1795f   16.9049f   42.4227f
  cstot      4.7545f   57.8829f   60.6999f   22.1304f   21.1268f   57.7899f
  cbtot      3.7532f   46.2836f   52.9900f   18.7304f   16.8346f   45.4944f
  cgs        2.7370f   34.2740f   34.5278f   12.7966f   12.6082f   34.1961f
  cgd      582.1569a    6.4885f    6.8588f    3.0147f    2.9147f    6.4851f



 subckt                                                                    
 element  0:m18      0:m5       0:m3       0:m7       0:m9       0:m1      
 model    0:pch.4    0:nch.4    0:nch.8    0:pch.4    0:pch.4    0:pch.4   
 region   Saturation Linear     Linear     Saturation Saturation Saturation
  id      -133.9417u  235.1890u   95.5764u -134.5756u -134.5756u -139.6120u
  ibs      1.912e-20 -3.873e-20  -25.1572a   50.9526a  1.922e-20  2.006e-20
  ibd       51.0439a  -49.1724a  -25.4059a   14.6193p   51.0517a  590.0000p
  vgs     -688.2832m  625.3065m  738.0262m -730.1554m -688.2832m -648.3000m
  vds     -222.0892m  112.2199m   37.7801m   -1.4229  -227.1104m   -1.6878 
  vbs        0.         0.      -112.2199m  227.1104m    0.         0.     
  vth     -488.9665m  502.7859m  534.8110m -556.4381m -488.9543m -504.0981m
  vdsat   -190.9115m  126.4444m  170.7944m -177.1082m -190.9193m -149.4333m
  vod     -199.3167m  122.5206m  203.2153m -173.7173m -199.3289m -144.2019m
  beta       6.8492m   32.8676m   16.0567m    6.6978m    6.8493m    8.4217m
  gam eff  601.1098m  740.5979m  748.7831m  599.2617m  601.1098m  676.1708m
  gm         1.0359m    2.2202m  464.0294u    1.2098m    1.0450m    1.4027m
  gds      129.9416u  817.3152u    2.1865m   16.6465u  122.7012u   20.2224u
  gmb      349.6805u  634.3185u  128.9286u  360.8816u  352.6129u  455.1508u
  cdtot     28.1889f   22.7237f   23.1871f   21.4320f   28.0794f   16.0403f
  cgtot     43.0532f   34.8756f   19.7328f   42.3487f   43.0350f   25.0309f
  cstot     60.6989f   44.1555f   24.0394f   57.6113f   60.6977f   37.7705f
  cbtot     52.9653f   37.6829f   18.6774f   44.1646f   52.9226f   33.3882f
  cgs       34.5283f   25.5798f   11.3740f   34.0534f   34.5289f   18.7731f
  cgd        6.8433f    6.7279f    7.7030f    6.4830f    6.8183f    4.8686f




          ***** job concluded
 **info** dc convergence successful at Newton-Raphson method 
 ******  
 

 ****** ac analysis tnom=  25.000 temp=  25.000 ******
 ****** operating point status is all       simulation time is     0.     

   *** parameter vbias =    2.000E-01 ***

    node    =voltage      node    =voltage      node    =voltage

 +0:vb1     = 850.2462m 0:vb2     = 842.7342m 0:vb3     =   1.1117 
 +0:vb4     = 625.3065m 0:vdd     =   1.8000  0:vin     =   1.1517 
 +0:vm10s   =   1.5852  0:vm13s   =   1.5808  0:vm15d   = 186.4374m
 +0:vm17s   =   1.5779  0:vm2d    = 595.3274m 0:vm5d    = 140.2415m
 +0:vm7s    =   1.5734  0:vout    = 200.0000m


 **** voltage sources

 subckt                                   
 element  0:vdd      0:vin      0:vout    
  volts      1.8000     1.1517   200.0000m
  current -935.5242u    0.        20.3845u
  power      1.6839m    0.        -4.0769u

     total voltage source power dissipation=    1.6799m       watts



 **** current sources

 subckt             
 element  0:i1      
  volts      1.2047 
  current  130.0000u
  power   -156.6074u


     total current source power dissipation=-156.6074u       watts


 **** mosfets


 subckt                                                                    
 element  0:m2       0:m4       0:m6       0:m8       0:m10      0:m11     
 model    0:nch.3    0:nch.3    0:pch.8    0:nch.3    0:pch.4    0:pch.4   
 region   Saturation Saturation Saturation Saturation Saturation Saturation
  id       130.0000u  131.5121u -131.5121u  132.9480u -132.9483u -132.9483u
  ibs     -2.117e-20 -2.141e-20  2.018e-20 -2.165e-20   50.9481a  1.898e-20
  ibd     -204.2222a   -1.9661p   11.8826a -311.0809p   51.4199a   51.0323a
  vgs      595.3274m  595.3274m -957.2658m  595.3274m -742.4926m -688.2832m
  vds      595.3274m  842.7342m -957.2658m    1.1117  -473.5100m -214.7732m
  vbs        0.         0.         0.         0.       214.7732m    0.     
  vth      483.2954m  483.2384m -486.6602m  483.1764m -556.0807m -488.9843m
  vdsat    156.6250m  156.6683m -367.7348m  156.7154m -185.9220m -190.9002m
  vod      112.0321m  112.0891m -470.6055m  112.1511m -186.4119m -199.2989m
  beta      13.3517m   13.3518m    1.2747m   13.3520m    6.6856m    6.8492m
  gam eff  511.7809m  511.7809m  608.0220m  511.7808m  599.3569m  601.1098m
  gm         1.5468m    1.5612m  463.5180u    1.5734m    1.1420m    1.0214m
  gds        6.8570u    5.6107u   16.1250u    5.1379u   35.4576u  141.9651u
  gmb      441.6620u  445.7438u  158.3211u  449.2043u  348.4481u  345.0110u
  cdtot     36.1141f   34.5981f    4.8110f   33.3348f   24.5942f   28.3626f
  cgtot    195.3641f  195.2723f    8.8257f  195.2455f   42.5523f   43.0828f
  cstot    236.1322f  236.2061f   12.5748f  236.2461f   58.0083f   60.7016f
  cbtot    117.6033f  116.1567f   10.0610f  114.9134f   47.3986f   53.0288f
  cgs      163.4941f  163.4138f    7.2604f  163.3882f   34.3913f   34.5267f
  cgd       11.7585f   11.7187f    1.3001f   11.7072f    6.5067f    6.8845f



 subckt                                                                    
 element  0:m12      0:m13      0:m14      0:m15      0:m16      0:m17     
 model    0:nch.8    0:pch.4    0:pch.4    0:nch.8    0:nch.8    0:pch.4   
 region   Saturation Saturation Saturation Saturation Saturation Saturation
  id       133.5615u -133.5615u -133.5615u  133.9417u  133.9417u -133.9417u
  ibs     -2.656e-20   50.9500a  1.907e-20 -2.257e-20  -25.4620a   50.9510a
  ibd     -243.5854f   51.8273a   51.0394a  -25.4697a  -25.5129a  187.2801a
  vgs      850.2462m -738.0533m -688.2832m  625.3065m  663.8088m -735.1765m
  vds      850.2462m -730.5414m -219.2125m  186.4374m  438.8691m -952.6043m
  vbs        0.       219.2125m    0.         0.      -186.4374m  222.0892m
  vth      513.0624m -556.5176m -488.9735m  503.2063m  553.3045m -556.6004m
  vdsat    238.3276m -182.5502m -190.9071m  126.3471m  122.5567m -180.4964m
  vod      337.1837m -181.5357m -199.3097m  122.1002m  110.5043m -178.5761m
  beta       2.9920m    6.6896m    6.8492m   16.3835m   16.2584m    6.6924m
  gam eff  785.9254m  599.3226m  601.1098m  742.7498m  752.5891m  599.3004m
  gm       573.0189u    1.1745m    1.0304m    1.3800m    1.4888m    1.1899m
  gds       16.5046u   23.8136u  134.4497u  133.6248u   40.1702u   19.9689u
  gmb      164.3310u  355.9027u  347.9030u  391.7570u  376.5201u  358.6871u
  cdtot      1.8576f   23.4806f   28.2551f   10.2538f    9.0726f   22.7136f
  cgtot      3.5734f   42.4678f   43.0644f   17.1795f   16.9049f   42.4227f
  cstot      4.7545f   57.8829f   60.6999f   22.1304f   21.1268f   57.7899f
  cbtot      3.7532f   46.2836f   52.9900f   18.7304f   16.8346f   45.4944f
  cgs        2.7370f   34.2740f   34.5278f   12.7966f   12.6082f   34.1961f
  cgd      582.1569a    6.4885f    6.8588f    3.0147f    2.9147f    6.4851f



 subckt                                                                    
 element  0:m18      0:m5       0:m3       0:m7       0:m9       0:m1      
 model    0:pch.4    0:nch.4    0:nch.8    0:pch.4    0:pch.4    0:pch.4   
 region   Saturation Saturation Linear     Saturation Saturation Saturation
  id      -133.9417u  253.1760u  114.1309u -134.5153u -134.5153u -139.0447u
  ibs      1.912e-20 -4.170e-20  -25.3715a   50.9525a  1.921e-20  1.998e-20
  ibd       51.0439a  -49.5954a  -25.4699a    6.5887p   51.0509a  439.3737p
  vgs     -688.2832m  625.3065m  710.0046m -730.6453m -688.2832m -648.3000m
  vds     -222.0892m  140.2415m   59.7585m   -1.3734  -226.6205m   -1.6598 
  vbs        0.         0.      -140.2415m  226.6205m    0.         0.     
  vth     -488.9665m  502.7385m  542.2549m -556.4678m -488.9555m -504.2242m
  vdsat   -190.9115m  126.4683m  152.6456m -177.4302m -190.9186m -149.3740m
  vod     -199.3167m  122.5679m  167.7498m -174.1775m -199.3277m -144.0758m
  beta       6.8492m   32.8679m   16.1359m    6.6972m    6.8493m    8.4215m
  gam eff  601.1098m  740.5980m  750.2362m  599.2654m  601.1098m  676.1708m
  gm         1.0359m    2.5085m  707.9573u    1.2081m    1.0442m    1.3986m
  gds      129.9416u  498.4183u    1.4317m   16.8548u  123.3742u   20.2747u
  gmb      349.6805u  713.6173u  190.5414u  360.7761u  352.3360u  454.2187u
  cdtot     28.1889f   21.3836f   17.8422f   21.5502f   28.0898f   16.0888f
  cgtot     43.0532f   34.5851f   18.9365f   42.3558f   43.0367f   25.0307f
  cstot     60.6989f   44.1094f   22.7610f   57.6295f   60.6978f   37.7734f
  cbtot     52.9653f   37.4385f   18.2532f   44.2877f   52.9267f   33.4369f
  cgs       34.5283f   25.6289f   12.2712f   34.0678f   34.5288f   18.7757f
  cgd        6.8433f    6.3064f    5.8075f    6.4831f    6.8206f    4.8686f




          ***** job concluded
 **info** dc convergence successful at Newton-Raphson method 
 ******  
 

 ****** ac analysis tnom=  25.000 temp=  25.000 ******
 ****** operating point status is all       simulation time is     0.     

   *** parameter vbias =    2.500E-01 ***

    node    =voltage      node    =voltage      node    =voltage

 +0:vb1     = 850.2462m 0:vb2     = 842.7342m 0:vb3     =   1.1117 
 +0:vb4     = 625.3065m 0:vdd     =   1.8000  0:vin     =   1.1517 
 +0:vm10s   =   1.5852  0:vm13s   =   1.5808  0:vm15d   = 186.4374m
 +0:vm17s   =   1.5779  0:vm2d    = 595.3274m 0:vm5d    = 161.2355m
 +0:vm7s    =   1.5739  0:vout    = 250.0000m


 **** voltage sources

 subckt                                   
 element  0:vdd      0:vin      0:vout    
  volts      1.8000     1.1517   250.0000m
  current -935.0366u    0.        10.9717u
  power      1.6831m    0.        -2.7429u

     total voltage source power dissipation=    1.6803m       watts



 **** current sources

 subckt             
 element  0:i1      
  volts      1.2047 
  current  130.0000u
  power   -156.6074u


     total current source power dissipation=-156.6074u       watts


 **** mosfets


 subckt                                                                    
 element  0:m2       0:m4       0:m6       0:m8       0:m10      0:m11     
 model    0:nch.3    0:nch.3    0:pch.8    0:nch.3    0:pch.4    0:pch.4   
 region   Saturation Saturation Saturation Saturation Saturation Saturation
  id       130.0000u  131.5121u -131.5121u  132.9480u -132.9483u -132.9483u
  ibs     -2.117e-20 -2.141e-20  2.018e-20 -2.165e-20   50.9481a  1.898e-20
  ibd     -204.2222a   -1.9661p   11.8826a -311.0809p   51.4199a   51.0323a
  vgs      595.3274m  595.3274m -957.2658m  595.3274m -742.4926m -688.2832m
  vds      595.3274m  842.7342m -957.2658m    1.1117  -473.5100m -214.7732m
  vbs        0.         0.         0.         0.       214.7732m    0.     
  vth      483.2954m  483.2384m -486.6602m  483.1764m -556.0807m -488.9843m
  vdsat    156.6250m  156.6683m -367.7348m  156.7154m -185.9220m -190.9002m
  vod      112.0321m  112.0891m -470.6055m  112.1511m -186.4119m -199.2989m
  beta      13.3517m   13.3518m    1.2747m   13.3520m    6.6856m    6.8492m
  gam eff  511.7809m  511.7809m  608.0220m  511.7808m  599.3569m  601.1098m
  gm         1.5468m    1.5612m  463.5180u    1.5734m    1.1420m    1.0214m
  gds        6.8570u    5.6107u   16.1250u    5.1379u   35.4576u  141.9651u
  gmb      441.6620u  445.7438u  158.3211u  449.2043u  348.4481u  345.0110u
  cdtot     36.1141f   34.5981f    4.8110f   33.3348f   24.5942f   28.3626f
  cgtot    195.3641f  195.2723f    8.8257f  195.2455f   42.5523f   43.0828f
  cstot    236.1322f  236.2061f   12.5748f  236.2461f   58.0083f   60.7016f
  cbtot    117.6033f  116.1567f   10.0610f  114.9134f   47.3986f   53.0288f
  cgs      163.4941f  163.4138f    7.2604f  163.3882f   34.3913f   34.5267f
  cgd       11.7585f   11.7187f    1.3001f   11.7072f    6.5067f    6.8845f



 subckt                                                                    
 element  0:m12      0:m13      0:m14      0:m15      0:m16      0:m17     
 model    0:nch.8    0:pch.4    0:pch.4    0:nch.8    0:nch.8    0:pch.4   
 region   Saturation Saturation Saturation Saturation Saturation Saturation
  id       133.5615u -133.5615u -133.5615u  133.9417u  133.9417u -133.9417u
  ibs     -2.656e-20   50.9500a  1.907e-20 -2.257e-20  -25.4620a   50.9510a
  ibd     -243.5854f   51.8273a   51.0394a  -25.4697a  -25.5129a  187.2801a
  vgs      850.2462m -738.0533m -688.2832m  625.3065m  663.8088m -735.1765m
  vds      850.2462m -730.5414m -219.2125m  186.4374m  438.8691m -952.6043m
  vbs        0.       219.2125m    0.         0.      -186.4374m  222.0892m
  vth      513.0624m -556.5176m -488.9735m  503.2063m  553.3045m -556.6004m
  vdsat    238.3276m -182.5502m -190.9071m  126.3471m  122.5567m -180.4964m
  vod      337.1837m -181.5357m -199.3097m  122.1002m  110.5043m -178.5761m
  beta       2.9920m    6.6896m    6.8492m   16.3835m   16.2584m    6.6924m
  gam eff  785.9254m  599.3226m  601.1098m  742.7498m  752.5891m  599.3004m
  gm       573.0189u    1.1745m    1.0304m    1.3800m    1.4888m    1.1899m
  gds       16.5046u   23.8136u  134.4497u  133.6248u   40.1702u   19.9689u
  gmb      164.3310u  355.9027u  347.9030u  391.7570u  376.5201u  358.6871u
  cdtot      1.8576f   23.4806f   28.2551f   10.2538f    9.0726f   22.7136f
  cgtot      3.5734f   42.4678f   43.0644f   17.1795f   16.9049f   42.4227f
  cstot      4.7545f   57.8829f   60.6999f   22.1304f   21.1268f   57.7899f
  cbtot      3.7532f   46.2836f   52.9900f   18.7304f   16.8346f   45.4944f
  cgs        2.7370f   34.2740f   34.5278f   12.7966f   12.6082f   34.1961f
  cgd      582.1569a    6.4885f    6.8588f    3.0147f    2.9147f    6.4851f



 subckt                                                                    
 element  0:m18      0:m5       0:m3       0:m7       0:m9       0:m1      
 model    0:pch.4    0:nch.4    0:nch.8    0:pch.4    0:pch.4    0:pch.4   
 region   Saturation Saturation Linear     Saturation Saturation Saturation
  id      -133.9417u  262.1012u  123.4822u -134.4539u -134.4539u -138.6187u
  ibs      1.912e-20 -4.317e-20  -25.4321a   50.9523a  1.920e-20  1.992e-20
  ibd       51.0439a  -49.7172a  -25.4796a    2.7764p   51.0502a  349.8735p
  vgs     -688.2832m  625.3065m  689.0106m -731.1418m -688.2832m -648.3000m
  vds     -222.0892m  161.2355m   88.7645m   -1.3239  -226.1240m   -1.6388 
  vbs        0.         0.      -161.2355m  226.1240m    0.         0.     
  vth     -488.9665m  502.7029m  547.7146m -556.4952m -488.9567m -504.3187m
  vdsat   -190.9115m  126.4864m  138.7909m -177.7581m -190.9178m -149.3294m
  vod     -199.3167m  122.6035m  141.2961m -174.6466m -199.3265m -143.9813m
  beta       6.8492m   32.8681m   16.1923m    6.6967m    6.8493m    8.4214m
  gam eff  601.1098m  740.5980m  751.3119m  599.2693m  601.1098m  676.1708m
  gm         1.0359m    2.6527m  969.8824u    1.2064m    1.0433m    1.3955m
  gds      129.9416u  363.5809u  788.4967u   17.0861u  124.0635u   20.3193u
  gmb      349.6805u  753.1425u  254.5514u  360.6495u  352.0532u  453.5133u
  cdtot     28.1889f   20.8116f   12.8430f   21.6719f   28.1004f   16.1255f
  cgtot     43.0532f   34.4615f   17.9552f   42.3631f   43.0384f   25.0306f
  cstot     60.6989f   44.1060f   21.7868f   57.6477f   60.6979f   37.7756f
  cbtot     52.9653f   37.2836f   17.8532f   44.4143f   52.9309f   33.4738f
  cgs       34.5283f   25.6314f   12.8273f   34.0822f   34.5288f   18.7776f
  cgd        6.8433f    6.1447f    4.0235f    6.4832f    6.8230f    4.8686f




          ***** job concluded
 **info** dc convergence successful at Newton-Raphson method 
 ******  
 

 ****** ac analysis tnom=  25.000 temp=  25.000 ******
 ****** operating point status is all       simulation time is     0.     

   *** parameter vbias =    3.000E-01 ***

    node    =voltage      node    =voltage      node    =voltage

 +0:vb1     = 850.2462m 0:vb2     = 842.7342m 0:vb3     =   1.1117 
 +0:vb4     = 625.3065m 0:vdd     =   1.8000  0:vin     =   1.1517 
 +0:vm10s   =   1.5852  0:vm13s   =   1.5808  0:vm15d   = 186.4374m
 +0:vm17s   =   1.5779  0:vm2d    = 595.3274m 0:vm5d    = 173.1323m
 +0:vm7s    =   1.5744  0:vout    = 300.0000m


 **** voltage sources

 subckt                                   
 element  0:vdd      0:vin      0:vout    
  volts      1.8000     1.1517   300.0000m
  current -934.7320u    0.         6.6610u
  power      1.6825m    0.        -1.9983u

     total voltage source power dissipation=    1.6805m       watts



 **** current sources

 subckt             
 element  0:i1      
  volts      1.2047 
  current  130.0000u
  power   -156.6074u


     total current source power dissipation=-156.6074u       watts


 **** mosfets


 subckt                                                                    
 element  0:m2       0:m4       0:m6       0:m8       0:m10      0:m11     
 model    0:nch.3    0:nch.3    0:pch.8    0:nch.3    0:pch.4    0:pch.4   
 region   Saturation Saturation Saturation Saturation Saturation Saturation
  id       130.0000u  131.5121u -131.5121u  132.9480u -132.9483u -132.9483u
  ibs     -2.117e-20 -2.141e-20  2.018e-20 -2.165e-20   50.9481a  1.898e-20
  ibd     -204.2222a   -1.9661p   11.8826a -311.0809p   51.4199a   51.0323a
  vgs      595.3274m  595.3274m -957.2658m  595.3274m -742.4926m -688.2832m
  vds      595.3274m  842.7342m -957.2658m    1.1117  -473.5100m -214.7732m
  vbs        0.         0.         0.         0.       214.7732m    0.     
  vth      483.2954m  483.2384m -486.6602m  483.1764m -556.0807m -488.9843m
  vdsat    156.6250m  156.6683m -367.7348m  156.7154m -185.9220m -190.9002m
  vod      112.0321m  112.0891m -470.6055m  112.1511m -186.4119m -199.2989m
  beta      13.3517m   13.3518m    1.2747m   13.3520m    6.6856m    6.8492m
  gam eff  511.7809m  511.7809m  608.0220m  511.7808m  599.3569m  601.1098m
  gm         1.5468m    1.5612m  463.5180u    1.5734m    1.1420m    1.0214m
  gds        6.8570u    5.6107u   16.1250u    5.1379u   35.4576u  141.9651u
  gmb      441.6620u  445.7438u  158.3211u  449.2043u  348.4481u  345.0110u
  cdtot     36.1141f   34.5981f    4.8110f   33.3348f   24.5942f   28.3626f
  cgtot    195.3641f  195.2723f    8.8257f  195.2455f   42.5523f   43.0828f
  cstot    236.1322f  236.2061f   12.5748f  236.2461f   58.0083f   60.7016f
  cbtot    117.6033f  116.1567f   10.0610f  114.9134f   47.3986f   53.0288f
  cgs      163.4941f  163.4138f    7.2604f  163.3882f   34.3913f   34.5267f
  cgd       11.7585f   11.7187f    1.3001f   11.7072f    6.5067f    6.8845f



 subckt                                                                    
 element  0:m12      0:m13      0:m14      0:m15      0:m16      0:m17     
 model    0:nch.8    0:pch.4    0:pch.4    0:nch.8    0:nch.8    0:pch.4   
 region   Saturation Saturation Saturation Saturation Saturation Saturation
  id       133.5615u -133.5615u -133.5615u  133.9417u  133.9417u -133.9417u
  ibs     -2.656e-20   50.9500a  1.907e-20 -2.257e-20  -25.4620a   50.9510a
  ibd     -243.5854f   51.8273a   51.0394a  -25.4697a  -25.5129a  187.2801a
  vgs      850.2462m -738.0533m -688.2832m  625.3065m  663.8088m -735.1765m
  vds      850.2462m -730.5414m -219.2125m  186.4374m  438.8691m -952.6043m
  vbs        0.       219.2125m    0.         0.      -186.4374m  222.0892m
  vth      513.0624m -556.5176m -488.9735m  503.2063m  553.3045m -556.6004m
  vdsat    238.3276m -182.5502m -190.9071m  126.3471m  122.5567m -180.4964m
  vod      337.1837m -181.5357m -199.3097m  122.1002m  110.5043m -178.5761m
  beta       2.9920m    6.6896m    6.8492m   16.3835m   16.2584m    6.6924m
  gam eff  785.9254m  599.3226m  601.1098m  742.7498m  752.5891m  599.3004m
  gm       573.0189u    1.1745m    1.0304m    1.3800m    1.4888m    1.1899m
  gds       16.5046u   23.8136u  134.4497u  133.6248u   40.1702u   19.9689u
  gmb      164.3310u  355.9027u  347.9030u  391.7570u  376.5201u  358.6871u
  cdtot      1.8576f   23.4806f   28.2551f   10.2538f    9.0726f   22.7136f
  cgtot      3.5734f   42.4678f   43.0644f   17.1795f   16.9049f   42.4227f
  cstot      4.7545f   57.8829f   60.6999f   22.1304f   21.1268f   57.7899f
  cbtot      3.7532f   46.2836f   52.9900f   18.7304f   16.8346f   45.4944f
  cgs        2.7370f   34.2740f   34.5278f   12.7966f   12.6082f   34.1961f
  cgd      582.1569a    6.4885f    6.8588f    3.0147f    2.9147f    6.4851f



 subckt                                                                    
 element  0:m18      0:m5       0:m3       0:m7       0:m9       0:m1      
 model    0:pch.4    0:nch.4    0:nch.8    0:pch.4    0:pch.4    0:pch.4   
 region   Saturation Saturation Saturation Saturation Saturation Saturation
  id      -133.9417u  266.1073u  127.7302u -134.3912u -134.3912u -138.3768u
  ibs      1.912e-20 -4.382e-20  -25.4499a   50.9522a  1.919e-20  1.988e-20
  ibd       51.0439a  -49.7540a  -25.4827a    1.0841p   51.0494a  306.6639p
  vgs     -688.2832m  625.3065m  677.1139m -731.6458m -688.2832m -648.3000m
  vds     -222.0892m  173.1323m  126.8677m   -1.2744  -225.6200m   -1.6269 
  vbs        0.         0.      -173.1323m  225.6200m    0.         0.     
  vth     -488.9665m  502.6827m  550.7179m -556.5202m -488.9579m -504.3722m
  vdsat   -190.9115m  126.4968m  130.9300m -178.0927m -190.9170m -149.3040m
  vod     -199.3167m  122.6238m  126.3960m -175.1256m -199.3253m -143.9278m
  beta       6.8492m   32.8682m   16.2230m    6.6961m    6.8493m    8.4214m
  gam eff  601.1098m  740.5980m  751.9167m  599.2731m  601.1098m  676.1708m
  gm         1.0359m    2.7151m    1.2046m    1.2046m    1.0424m    1.3937m
  gds      129.9416u  312.5001u  344.4364u   17.3428u  124.7706u   20.3466u
  gmb      349.6805u  770.2219u  310.9524u  360.4992u  351.7642u  453.1107u
  cdtot     28.1889f   20.5749f   10.6375f   21.7970f   28.1112f   16.1466f
  cgtot     43.0532f   34.4122f   17.3736f   42.3705f   43.0402f   25.0305f
  cstot     60.6989f   44.1081f   21.4019f   57.6661f   60.6980f   37.7769f
  cbtot     52.9653f   37.2028f   17.5847f   44.5445f   52.9352f   33.4949f
  cgs       34.5283f   25.6283f   12.8646f   34.0967f   34.5287f   18.7787f
  cgd        6.8433f    6.0839f    3.2578f    6.4834f    6.8254f    4.8686f




          ***** job concluded
 **info** dc convergence successful at Newton-Raphson method 
 ******  
 

 ****** ac analysis tnom=  25.000 temp=  25.000 ******
 ****** operating point status is all       simulation time is     0.     

   *** parameter vbias =    3.500E-01 ***

    node    =voltage      node    =voltage      node    =voltage

 +0:vb1     = 850.2462m 0:vb2     = 842.7342m 0:vb3     =   1.1117 
 +0:vb4     = 625.3065m 0:vdd     =   1.8000  0:vin     =   1.1517 
 +0:vm10s   =   1.5852  0:vm13s   =   1.5808  0:vm15d   = 186.4374m
 +0:vm17s   =   1.5779  0:vm2d    = 595.3274m 0:vm5d    = 178.5312m
 +0:vm7s    =   1.5749  0:vout    = 350.0000m


 **** voltage sources

 subckt                                   
 element  0:vdd      0:vin      0:vout    
  volts      1.8000     1.1517   350.0000m
  current -934.5581u    0.         4.8527u
  power      1.6822m    0.        -1.6984u

     total voltage source power dissipation=    1.6805m       watts



 **** current sources

 subckt             
 element  0:i1      
  volts      1.2047 
  current  130.0000u
  power   -156.6074u


     total current source power dissipation=-156.6074u       watts


 **** mosfets


 subckt                                                                    
 element  0:m2       0:m4       0:m6       0:m8       0:m10      0:m11     
 model    0:nch.3    0:nch.3    0:pch.8    0:nch.3    0:pch.4    0:pch.4   
 region   Saturation Saturation Saturation Saturation Saturation Saturation
  id       130.0000u  131.5121u -131.5121u  132.9480u -132.9483u -132.9483u
  ibs     -2.117e-20 -2.141e-20  2.018e-20 -2.165e-20   50.9481a  1.898e-20
  ibd     -204.2222a   -1.9661p   11.8826a -311.0809p   51.4199a   51.0323a
  vgs      595.3274m  595.3274m -957.2658m  595.3274m -742.4926m -688.2832m
  vds      595.3274m  842.7342m -957.2658m    1.1117  -473.5100m -214.7732m
  vbs        0.         0.         0.         0.       214.7732m    0.     
  vth      483.2954m  483.2384m -486.6602m  483.1764m -556.0807m -488.9843m
  vdsat    156.6250m  156.6683m -367.7348m  156.7154m -185.9220m -190.9002m
  vod      112.0321m  112.0891m -470.6055m  112.1511m -186.4119m -199.2989m
  beta      13.3517m   13.3518m    1.2747m   13.3520m    6.6856m    6.8492m
  gam eff  511.7809m  511.7809m  608.0220m  511.7808m  599.3569m  601.1098m
  gm         1.5468m    1.5612m  463.5180u    1.5734m    1.1420m    1.0214m
  gds        6.8570u    5.6107u   16.1250u    5.1379u   35.4576u  141.9651u
  gmb      441.6620u  445.7438u  158.3211u  449.2043u  348.4481u  345.0110u
  cdtot     36.1141f   34.5981f    4.8110f   33.3348f   24.5942f   28.3626f
  cgtot    195.3641f  195.2723f    8.8257f  195.2455f   42.5523f   43.0828f
  cstot    236.1322f  236.2061f   12.5748f  236.2461f   58.0083f   60.7016f
  cbtot    117.6033f  116.1567f   10.0610f  114.9134f   47.3986f   53.0288f
  cgs      163.4941f  163.4138f    7.2604f  163.3882f   34.3913f   34.5267f
  cgd       11.7585f   11.7187f    1.3001f   11.7072f    6.5067f    6.8845f



 subckt                                                                    
 element  0:m12      0:m13      0:m14      0:m15      0:m16      0:m17     
 model    0:nch.8    0:pch.4    0:pch.4    0:nch.8    0:nch.8    0:pch.4   
 region   Saturation Saturation Saturation Saturation Saturation Saturation
  id       133.5615u -133.5615u -133.5615u  133.9417u  133.9417u -133.9417u
  ibs     -2.656e-20   50.9500a  1.907e-20 -2.257e-20  -25.4620a   50.9510a
  ibd     -243.5854f   51.8273a   51.0394a  -25.4697a  -25.5129a  187.2801a
  vgs      850.2462m -738.0533m -688.2832m  625.3065m  663.8088m -735.1765m
  vds      850.2462m -730.5414m -219.2125m  186.4374m  438.8691m -952.6043m
  vbs        0.       219.2125m    0.         0.      -186.4374m  222.0892m
  vth      513.0624m -556.5176m -488.9735m  503.2063m  553.3045m -556.6004m
  vdsat    238.3276m -182.5502m -190.9071m  126.3471m  122.5567m -180.4964m
  vod      337.1837m -181.5357m -199.3097m  122.1002m  110.5043m -178.5761m
  beta       2.9920m    6.6896m    6.8492m   16.3835m   16.2584m    6.6924m
  gam eff  785.9254m  599.3226m  601.1098m  742.7498m  752.5891m  599.3004m
  gm       573.0189u    1.1745m    1.0304m    1.3800m    1.4888m    1.1899m
  gds       16.5046u   23.8136u  134.4497u  133.6248u   40.1702u   19.9689u
  gmb      164.3310u  355.9027u  347.9030u  391.7570u  376.5201u  358.6871u
  cdtot      1.8576f   23.4806f   28.2551f   10.2538f    9.0726f   22.7136f
  cgtot      3.5734f   42.4678f   43.0644f   17.1795f   16.9049f   42.4227f
  cstot      4.7545f   57.8829f   60.6999f   22.1304f   21.1268f   57.7899f
  cbtot      3.7532f   46.2836f   52.9900f   18.7304f   16.8346f   45.4944f
  cgs        2.7370f   34.2740f   34.5278f   12.7966f   12.6082f   34.1961f
  cgd      582.1569a    6.4885f    6.8588f    3.0147f    2.9147f    6.4851f



 subckt                                                                    
 element  0:m18      0:m5       0:m3       0:m7       0:m9       0:m1      
 model    0:pch.4    0:nch.4    0:nch.8    0:pch.4    0:pch.4    0:pch.4   
 region   Saturation Saturation Saturation Saturation Saturation Saturation
  id      -133.9417u  267.7417u  129.4745u -134.3271u -134.3271u -138.2669u
  ibs      1.912e-20 -4.409e-20  -25.4556a   50.9520a  1.918e-20  1.987e-20
  ibd       51.0439a  -49.7662a  -25.4861a  388.1079f   51.0486a  288.6630p
  vgs     -688.2832m  625.3065m  671.7150m -732.1580m -688.2832m -648.3000m
  vds     -222.0892m  178.5312m  171.4688m   -1.2249  -225.1078m   -1.6215 
  vbs        0.         0.      -178.5312m  225.1078m    0.         0.     
  vth     -488.9665m  502.6736m  551.9982m -556.5424m -488.9592m -504.3965m
  vdsat   -190.9115m  126.5015m  127.4060m -178.4347m -190.9162m -149.2925m
  vod     -199.3167m  122.6329m  119.7167m -175.6156m -199.3240m -143.9035m
  beta       6.8492m   32.8683m   16.2368m    6.6956m    6.8493m    8.4213m
  gam eff  601.1098m  740.5981m  752.1900m  599.2771m  601.1098m  676.1708m
  gm         1.0359m    2.7399m    1.3356m    1.2027m    1.0415m    1.3929m
  gds      129.9416u  293.5383u  157.9095u   17.6284u  125.4970u   20.3594u
  gmb      349.6805u  777.0157u  342.0713u  360.3224u  351.4684u  452.9273u
  cdtot     28.1889f   20.4819f    9.9197f   21.9260f   28.1222f   16.1562f
  cgtot     43.0532f   34.3934f   17.1389f   42.3780f   43.0420f   25.0305f
  cstot     60.6989f   44.1095f   21.2794f   57.6846f   60.6981f   37.7774f
  cbtot     52.9653f   37.1675f   17.4128f   44.6784f   52.9395f   33.5046f
  cgs       34.5283f   25.6263f   12.7915f   34.1114f   34.5287f   18.7792f
  cgd        6.8433f    6.0614f    3.0357f    6.4836f    6.8280f    4.8686f




          ***** job concluded
 **info** dc convergence successful at Newton-Raphson method 
 ******  
 

 ****** ac analysis tnom=  25.000 temp=  25.000 ******
 ****** operating point status is all       simulation time is     0.     

   *** parameter vbias =    4.000E-01 ***

    node    =voltage      node    =voltage      node    =voltage

 +0:vb1     = 850.2462m 0:vb2     = 842.7342m 0:vb3     =   1.1117 
 +0:vb4     = 625.3065m 0:vdd     =   1.8000  0:vin     =   1.1517 
 +0:vm10s   =   1.5852  0:vm13s   =   1.5808  0:vm15d   = 186.4374m
 +0:vm17s   =   1.5779  0:vm2d    = 595.3274m 0:vm5d    = 181.3712m
 +0:vm7s    =   1.5754  0:vout    = 400.0000m


 **** voltage sources

 subckt                                   
 element  0:vdd      0:vin      0:vout    
  volts      1.8000     1.1517   400.0000m
  current -934.4346u    0.         3.9089u
  power      1.6820m    0.        -1.5636u

     total voltage source power dissipation=    1.6804m       watts



 **** current sources

 subckt             
 element  0:i1      
  volts      1.2047 
  current  130.0000u
  power   -156.6074u


     total current source power dissipation=-156.6074u       watts


 **** mosfets


 subckt                                                                    
 element  0:m2       0:m4       0:m6       0:m8       0:m10      0:m11     
 model    0:nch.3    0:nch.3    0:pch.8    0:nch.3    0:pch.4    0:pch.4   
 region   Saturation Saturation Saturation Saturation Saturation Saturation
  id       130.0000u  131.5121u -131.5121u  132.9480u -132.9483u -132.9483u
  ibs     -2.117e-20 -2.141e-20  2.018e-20 -2.165e-20   50.9481a  1.898e-20
  ibd     -204.2222a   -1.9661p   11.8826a -311.0809p   51.4199a   51.0323a
  vgs      595.3274m  595.3274m -957.2658m  595.3274m -742.4926m -688.2832m
  vds      595.3274m  842.7342m -957.2658m    1.1117  -473.5100m -214.7732m
  vbs        0.         0.         0.         0.       214.7732m    0.     
  vth      483.2954m  483.2384m -486.6602m  483.1764m -556.0807m -488.9843m
  vdsat    156.6250m  156.6683m -367.7348m  156.7154m -185.9220m -190.9002m
  vod      112.0321m  112.0891m -470.6055m  112.1511m -186.4119m -199.2989m
  beta      13.3517m   13.3518m    1.2747m   13.3520m    6.6856m    6.8492m
  gam eff  511.7809m  511.7809m  608.0220m  511.7808m  599.3569m  601.1098m
  gm         1.5468m    1.5612m  463.5180u    1.5734m    1.1420m    1.0214m
  gds        6.8570u    5.6107u   16.1250u    5.1379u   35.4576u  141.9651u
  gmb      441.6620u  445.7438u  158.3211u  449.2043u  348.4481u  345.0110u
  cdtot     36.1141f   34.5981f    4.8110f   33.3348f   24.5942f   28.3626f
  cgtot    195.3641f  195.2723f    8.8257f  195.2455f   42.5523f   43.0828f
  cstot    236.1322f  236.2061f   12.5748f  236.2461f   58.0083f   60.7016f
  cbtot    117.6033f  116.1567f   10.0610f  114.9134f   47.3986f   53.0288f
  cgs      163.4941f  163.4138f    7.2604f  163.3882f   34.3913f   34.5267f
  cgd       11.7585f   11.7187f    1.3001f   11.7072f    6.5067f    6.8845f



 subckt                                                                    
 element  0:m12      0:m13      0:m14      0:m15      0:m16      0:m17     
 model    0:nch.8    0:pch.4    0:pch.4    0:nch.8    0:nch.8    0:pch.4   
 region   Saturation Saturation Saturation Saturation Saturation Saturation
  id       133.5615u -133.5615u -133.5615u  133.9417u  133.9417u -133.9417u
  ibs     -2.656e-20   50.9500a  1.907e-20 -2.257e-20  -25.4620a   50.9510a
  ibd     -243.5854f   51.8273a   51.0394a  -25.4697a  -25.5129a  187.2801a
  vgs      850.2462m -738.0533m -688.2832m  625.3065m  663.8088m -735.1765m
  vds      850.2462m -730.5414m -219.2125m  186.4374m  438.8691m -952.6043m
  vbs        0.       219.2125m    0.         0.      -186.4374m  222.0892m
  vth      513.0624m -556.5176m -488.9735m  503.2063m  553.3045m -556.6004m
  vdsat    238.3276m -182.5502m -190.9071m  126.3471m  122.5567m -180.4964m
  vod      337.1837m -181.5357m -199.3097m  122.1002m  110.5043m -178.5761m
  beta       2.9920m    6.6896m    6.8492m   16.3835m   16.2584m    6.6924m
  gam eff  785.9254m  599.3226m  601.1098m  742.7498m  752.5891m  599.3004m
  gm       573.0189u    1.1745m    1.0304m    1.3800m    1.4888m    1.1899m
  gds       16.5046u   23.8136u  134.4497u  133.6248u   40.1702u   19.9689u
  gmb      164.3310u  355.9027u  347.9030u  391.7570u  376.5201u  358.6871u
  cdtot      1.8576f   23.4806f   28.2551f   10.2538f    9.0726f   22.7136f
  cgtot      3.5734f   42.4678f   43.0644f   17.1795f   16.9049f   42.4227f
  cstot      4.7545f   57.8829f   60.6999f   22.1304f   21.1268f   57.7899f
  cbtot      3.7532f   46.2836f   52.9900f   18.7304f   16.8346f   45.4944f
  cgs        2.7370f   34.2740f   34.5278f   12.7966f   12.6082f   34.1961f
  cgd      582.1569a    6.4885f    6.8588f    3.0147f    2.9147f    6.4851f



 subckt                                                                    
 element  0:m18      0:m5       0:m3       0:m7       0:m9       0:m1      
 model    0:pch.4    0:nch.4    0:nch.8    0:pch.4    0:pch.4    0:pch.4   
 region   Saturation Saturation Saturation Saturation Saturation Saturation
  id      -133.9417u  268.5620u  130.3526u -134.2615u -134.2615u -138.2091u
  ibs      1.912e-20 -4.423e-20  -25.4581a   50.9519a  1.917e-20  1.986e-20
  ibd       51.0439a  -49.7717a  -25.4904a  125.7670f   51.0478a  279.5744p
  vgs     -688.2832m  625.3065m  668.8750m -732.6793m -688.2832m -648.3000m
  vds     -222.0892m  181.3712m  218.6288m   -1.1754  -224.5864m   -1.6186 
  vbs        0.         0.      -181.3712m  224.5864m    0.         0.     
  vth     -488.9665m  502.6687m  552.6044m -556.5616m -488.9605m -504.4093m
  vdsat   -190.9115m  126.5040m  125.5899m -178.7850m -190.9154m -149.2865m
  vod     -199.3167m  122.6378m  116.2706m -176.1177m -199.3228m -143.8907m
  beta       6.8492m   32.8683m   16.2442m    6.6950m    6.8493m    8.4213m
  gam eff  601.1098m  740.5981m  752.3335m  599.2811m  601.1098m  676.1708m
  gm         1.0359m    2.7522m    1.3945m    1.2007m    1.0405m    1.3925m
  gds      129.9416u  284.4343u   96.2486u   17.9470u  126.2446u   20.3663u
  gmb      349.6805u  780.3834u  355.8124u  360.1156u  351.1651u  452.8307u
  cdtot     28.1889f   20.4361f    9.6212f   22.0589f   28.1335f   16.1612f
  cgtot     43.0532f   34.3842f   17.0362f   42.3857f   43.0439f   25.0305f
  cstot     60.6989f   44.1103f   21.2254f   57.7033f   60.6983f   37.7777f
  cbtot     52.9653f   37.1491f   17.2802f   44.8164f   52.9439f   33.5097f
  cgs       34.5283f   25.6252f   12.7315f   34.1263f   34.5286f   18.7795f
  cgd        6.8433f    6.0507f    2.9653f    6.4837f    6.8305f    4.8686f




          ***** job concluded
 **info** dc convergence successful at Newton-Raphson method 
 ******  
 

 ****** ac analysis tnom=  25.000 temp=  25.000 ******
 ****** operating point status is all       simulation time is     0.     

   *** parameter vbias =    4.500E-01 ***

    node    =voltage      node    =voltage      node    =voltage

 +0:vb1     = 850.2462m 0:vb2     = 842.7342m 0:vb3     =   1.1117 
 +0:vb4     = 625.3065m 0:vdd     =   1.8000  0:vin     =   1.1517 
 +0:vm10s   =   1.5852  0:vm13s   =   1.5808  0:vm15d   = 186.4374m
 +0:vm17s   =   1.5779  0:vm2d    = 595.3274m 0:vm5d    = 183.2641m
 +0:vm7s    =   1.5759  0:vout    = 450.0000m


 **** voltage sources

 subckt                                   
 element  0:vdd      0:vin      0:vout    
  volts      1.8000     1.1517   450.0000m
  current -934.3288u    0.         3.2703u
  power      1.6818m    0.        -1.4716u

     total voltage source power dissipation=    1.6803m       watts



 **** current sources

 subckt             
 element  0:i1      
  volts      1.2047 
  current  130.0000u
  power   -156.6074u


     total current source power dissipation=-156.6074u       watts


 **** mosfets


 subckt                                                                    
 element  0:m2       0:m4       0:m6       0:m8       0:m10      0:m11     
 model    0:nch.3    0:nch.3    0:pch.8    0:nch.3    0:pch.4    0:pch.4   
 region   Saturation Saturation Saturation Saturation Saturation Saturation
  id       130.0000u  131.5121u -131.5121u  132.9480u -132.9483u -132.9483u
  ibs     -2.117e-20 -2.141e-20  2.018e-20 -2.165e-20   50.9481a  1.898e-20
  ibd     -204.2222a   -1.9661p   11.8826a -311.0809p   51.4199a   51.0323a
  vgs      595.3274m  595.3274m -957.2658m  595.3274m -742.4926m -688.2832m
  vds      595.3274m  842.7342m -957.2658m    1.1117  -473.5100m -214.7732m
  vbs        0.         0.         0.         0.       214.7732m    0.     
  vth      483.2954m  483.2384m -486.6602m  483.1764m -556.0807m -488.9843m
  vdsat    156.6250m  156.6683m -367.7348m  156.7154m -185.9220m -190.9002m
  vod      112.0321m  112.0891m -470.6055m  112.1511m -186.4119m -199.2989m
  beta      13.3517m   13.3518m    1.2747m   13.3520m    6.6856m    6.8492m
  gam eff  511.7809m  511.7809m  608.0220m  511.7808m  599.3569m  601.1098m
  gm         1.5468m    1.5612m  463.5180u    1.5734m    1.1420m    1.0214m
  gds        6.8570u    5.6107u   16.1250u    5.1379u   35.4576u  141.9651u
  gmb      441.6620u  445.7438u  158.3211u  449.2043u  348.4481u  345.0110u
  cdtot     36.1141f   34.5981f    4.8110f   33.3348f   24.5942f   28.3626f
  cgtot    195.3641f  195.2723f    8.8257f  195.2455f   42.5523f   43.0828f
  cstot    236.1322f  236.2061f   12.5748f  236.2461f   58.0083f   60.7016f
  cbtot    117.6033f  116.1567f   10.0610f  114.9134f   47.3986f   53.0288f
  cgs      163.4941f  163.4138f    7.2604f  163.3882f   34.3913f   34.5267f
  cgd       11.7585f   11.7187f    1.3001f   11.7072f    6.5067f    6.8845f



 subckt                                                                    
 element  0:m12      0:m13      0:m14      0:m15      0:m16      0:m17     
 model    0:nch.8    0:pch.4    0:pch.4    0:nch.8    0:nch.8    0:pch.4   
 region   Saturation Saturation Saturation Saturation Saturation Saturation
  id       133.5615u -133.5615u -133.5615u  133.9417u  133.9417u -133.9417u
  ibs     -2.656e-20   50.9500a  1.907e-20 -2.257e-20  -25.4620a   50.9510a
  ibd     -243.5854f   51.8273a   51.0394a  -25.4697a  -25.5129a  187.2801a
  vgs      850.2462m -738.0533m -688.2832m  625.3065m  663.8088m -735.1765m
  vds      850.2462m -730.5414m -219.2125m  186.4374m  438.8691m -952.6043m
  vbs        0.       219.2125m    0.         0.      -186.4374m  222.0892m
  vth      513.0624m -556.5176m -488.9735m  503.2063m  553.3045m -556.6004m
  vdsat    238.3276m -182.5502m -190.9071m  126.3471m  122.5567m -180.4964m
  vod      337.1837m -181.5357m -199.3097m  122.1002m  110.5043m -178.5761m
  beta       2.9920m    6.6896m    6.8492m   16.3835m   16.2584m    6.6924m
  gam eff  785.9254m  599.3226m  601.1098m  742.7498m  752.5891m  599.3004m
  gm       573.0189u    1.1745m    1.0304m    1.3800m    1.4888m    1.1899m
  gds       16.5046u   23.8136u  134.4497u  133.6248u   40.1702u   19.9689u
  gmb      164.3310u  355.9027u  347.9030u  391.7570u  376.5201u  358.6871u
  cdtot      1.8576f   23.4806f   28.2551f   10.2538f    9.0726f   22.7136f
  cgtot      3.5734f   42.4678f   43.0644f   17.1795f   16.9049f   42.4227f
  cstot      4.7545f   57.8829f   60.6999f   22.1304f   21.1268f   57.7899f
  cbtot      3.7532f   46.2836f   52.9900f   18.7304f   16.8346f   45.4944f
  cgs        2.7370f   34.2740f   34.5278f   12.7966f   12.6082f   34.1961f
  cgd      582.1569a    6.4885f    6.8588f    3.0147f    2.9147f    6.4851f



 subckt                                                                    
 element  0:m18      0:m5       0:m3       0:m7       0:m9       0:m1      
 model    0:pch.4    0:nch.4    0:nch.8    0:pch.4    0:pch.4    0:pch.4   
 region   Saturation Saturation Saturation Saturation Saturation Saturation
  id      -133.9417u  269.0947u  130.9239u -134.1942u -134.1942u -138.1706u
  ibs      1.912e-20 -4.432e-20  -25.4597a   50.9517a  1.916e-20  1.985e-20
  ibd       51.0439a  -49.7751a  -25.4951a   36.3435f   51.0470a  273.6579p
  vgs     -688.2832m  625.3065m  666.9820m -733.2110m -688.2832m -648.3000m
  vds     -222.0892m  183.2641m  266.7359m   -1.1259  -224.0548m   -1.6167 
  vbs        0.         0.      -183.2641m  224.0548m    0.         0.     
  vth     -488.9665m  502.6655m  552.9613m -556.5775m -488.9618m -504.4178m
  vdsat   -190.9115m  126.5056m  124.4054m -179.1445m -190.9146m -149.2824m
  vod     -199.3167m  122.6410m  114.0207m -176.6335m -199.3215m -143.8822m
  beta       6.8492m   32.8684m   16.2492m    6.6945m    6.8492m    8.4213m
  gam eff  601.1098m  740.5981m  752.4291m  599.2852m  601.1098m  676.1708m
  gm         1.0359m    2.7602m    1.4266m    1.1986m    1.0396m    1.3922m
  gds      129.9416u  278.6687u   69.9962u   18.3040u  127.0154u   20.3709u
  gmb      349.6805u  782.5550u  363.0650u  359.8750u  350.8534u  452.7662u
  cdtot     28.1889f   20.4065f    9.4466f   22.1960f   28.1452f   16.1646f
  cgtot     43.0532f   34.3784f   16.9805f   42.3935f   43.0459f   25.0305f
  cstot     60.6989f   44.1109f   21.1898f   57.7221f   60.6984f   37.7779f
  cbtot     52.9653f   37.1370f   17.1654f   44.9586f   52.9485f   33.5131f
  cgs       34.5283f   25.6244f   12.6869f   34.1413f   34.5286f   18.7796f
  cgd        6.8433f    6.0438f    2.9381f    6.4840f    6.8332f    4.8686f




          ***** job concluded
 **info** dc convergence successful at Newton-Raphson method 
 ******  
 

 ****** ac analysis tnom=  25.000 temp=  25.000 ******
 ****** operating point status is all       simulation time is     0.     

   *** parameter vbias =    5.000E-01 ***

    node    =voltage      node    =voltage      node    =voltage

 +0:vb1     = 850.2462m 0:vb2     = 842.7342m 0:vb3     =   1.1117 
 +0:vb4     = 625.3065m 0:vdd     =   1.8000  0:vin     =   1.1517 
 +0:vm10s   =   1.5852  0:vm13s   =   1.5808  0:vm15d   = 186.4374m
 +0:vm17s   =   1.5779  0:vm2d    = 595.3274m 0:vm5d    = 184.7062m
 +0:vm7s    =   1.5765  0:vout    = 500.0000m


 **** voltage sources

 subckt                                   
 element  0:vdd      0:vin      0:vout    
  volts      1.8000     1.1517   500.0000m
  current -934.2302u    0.         2.7731u
  power      1.6816m    0.        -1.3865u

     total voltage source power dissipation=    1.6802m       watts



 **** current sources

 subckt             
 element  0:i1      
  volts      1.2047 
  current  130.0000u
  power   -156.6074u


     total current source power dissipation=-156.6074u       watts


 **** mosfets


 subckt                                                                    
 element  0:m2       0:m4       0:m6       0:m8       0:m10      0:m11     
 model    0:nch.3    0:nch.3    0:pch.8    0:nch.3    0:pch.4    0:pch.4   
 region   Saturation Saturation Saturation Saturation Saturation Saturation
  id       130.0000u  131.5121u -131.5121u  132.9480u -132.9483u -132.9483u
  ibs     -2.117e-20 -2.141e-20  2.018e-20 -2.165e-20   50.9481a  1.898e-20
  ibd     -204.2222a   -1.9661p   11.8826a -311.0809p   51.4199a   51.0323a
  vgs      595.3274m  595.3274m -957.2658m  595.3274m -742.4926m -688.2832m
  vds      595.3274m  842.7342m -957.2658m    1.1117  -473.5100m -214.7732m
  vbs        0.         0.         0.         0.       214.7732m    0.     
  vth      483.2954m  483.2384m -486.6602m  483.1764m -556.0807m -488.9843m
  vdsat    156.6250m  156.6683m -367.7348m  156.7154m -185.9220m -190.9002m
  vod      112.0321m  112.0891m -470.6055m  112.1511m -186.4119m -199.2989m
  beta      13.3517m   13.3518m    1.2747m   13.3520m    6.6856m    6.8492m
  gam eff  511.7809m  511.7809m  608.0220m  511.7808m  599.3569m  601.1098m
  gm         1.5468m    1.5612m  463.5180u    1.5734m    1.1420m    1.0214m
  gds        6.8570u    5.6107u   16.1250u    5.1379u   35.4576u  141.9651u
  gmb      441.6620u  445.7438u  158.3211u  449.2043u  348.4481u  345.0110u
  cdtot     36.1141f   34.5981f    4.8110f   33.3348f   24.5942f   28.3626f
  cgtot    195.3641f  195.2723f    8.8257f  195.2455f   42.5523f   43.0828f
  cstot    236.1322f  236.2061f   12.5748f  236.2461f   58.0083f   60.7016f
  cbtot    117.6033f  116.1567f   10.0610f  114.9134f   47.3986f   53.0288f
  cgs      163.4941f  163.4138f    7.2604f  163.3882f   34.3913f   34.5267f
  cgd       11.7585f   11.7187f    1.3001f   11.7072f    6.5067f    6.8845f



 subckt                                                                    
 element  0:m12      0:m13      0:m14      0:m15      0:m16      0:m17     
 model    0:nch.8    0:pch.4    0:pch.4    0:nch.8    0:nch.8    0:pch.4   
 region   Saturation Saturation Saturation Saturation Saturation Saturation
  id       133.5615u -133.5615u -133.5615u  133.9417u  133.9417u -133.9417u
  ibs     -2.656e-20   50.9500a  1.907e-20 -2.257e-20  -25.4620a   50.9510a
  ibd     -243.5854f   51.8273a   51.0394a  -25.4697a  -25.5129a  187.2801a
  vgs      850.2462m -738.0533m -688.2832m  625.3065m  663.8088m -735.1765m
  vds      850.2462m -730.5414m -219.2125m  186.4374m  438.8691m -952.6043m
  vbs        0.       219.2125m    0.         0.      -186.4374m  222.0892m
  vth      513.0624m -556.5176m -488.9735m  503.2063m  553.3045m -556.6004m
  vdsat    238.3276m -182.5502m -190.9071m  126.3471m  122.5567m -180.4964m
  vod      337.1837m -181.5357m -199.3097m  122.1002m  110.5043m -178.5761m
  beta       2.9920m    6.6896m    6.8492m   16.3835m   16.2584m    6.6924m
  gam eff  785.9254m  599.3226m  601.1098m  742.7498m  752.5891m  599.3004m
  gm       573.0189u    1.1745m    1.0304m    1.3800m    1.4888m    1.1899m
  gds       16.5046u   23.8136u  134.4497u  133.6248u   40.1702u   19.9689u
  gmb      164.3310u  355.9027u  347.9030u  391.7570u  376.5201u  358.6871u
  cdtot      1.8576f   23.4806f   28.2551f   10.2538f    9.0726f   22.7136f
  cgtot      3.5734f   42.4678f   43.0644f   17.1795f   16.9049f   42.4227f
  cstot      4.7545f   57.8829f   60.6999f   22.1304f   21.1268f   57.7899f
  cbtot      3.7532f   46.2836f   52.9900f   18.7304f   16.8346f   45.4944f
  cgs        2.7370f   34.2740f   34.5278f   12.7966f   12.6082f   34.1961f
  cgd      582.1569a    6.4885f    6.8588f    3.0147f    2.9147f    6.4851f



 subckt                                                                    
 element  0:m18      0:m5       0:m3       0:m7       0:m9       0:m1      
 model    0:pch.4    0:nch.4    0:nch.8    0:pch.4    0:pch.4    0:pch.4   
 region   Saturation Saturation Saturation Saturation Saturation Saturation
[...]
  ibd     -204.2222a   -1.9661p   11.8826a -311.0809p   51.4199a   51.0323a
  vgs      595.3274m  595.3274m -957.2658m  595.3274m -742.4926m -688.2832m
  vds      595.3274m  842.7342m -957.2658m    1.1117  -473.5100m -214.7732m
  vbs        0.         0.         0.         0.       214.7732m    0.     
  vth      483.2954m  483.2384m -486.6602m  483.1764m -556.0807m -488.9843m
  vdsat    156.6250m  156.6683m -367.7348m  156.7154m -185.9220m -190.9002m
  vod      112.0321m  112.0891m -470.6055m  112.1511m -186.4119m -199.2989m
  beta      13.3517m   13.3518m    1.2747m   13.3520m    6.6856m    6.8492m
  gam eff  511.7809m  511.7809m  608.0220m  511.7808m  599.3569m  601.1098m
  gm         1.5468m    1.5612m  463.5180u    1.5734m    1.1420m    1.0214m
  gds        6.8570u    5.6107u   16.1250u    5.1379u   35.4576u  141.9651u
  gmb      441.6620u  445.7438u  158.3211u  449.2043u  348.4481u  345.0110u
  cdtot     36.1141f   34.5981f    4.8110f   33.3348f   24.5942f   28.3626f
  cgtot    195.3641f  195.2723f    8.8257f  195.2455f   42.5523f   43.0828f
  cstot    236.1322f  236.2061f   12.5748f  236.2461f   58.0083f   60.7016f
  cbtot    117.6033f  116.1567f   10.0610f  114.9134f   47.3986f   53.0288f
  cgs      163.4941f  163.4138f    7.2604f  163.3882f   34.3913f   34.5267f
  cgd       11.7585f   11.7187f    1.3001f   11.7072f    6.5067f    6.8845f



 subckt                                                                    
 element  0:m12      0:m13      0:m14      0:m15      0:m16      0:m17     
 model    0:nch.8    0:pch.4    0:pch.4    0:nch.8    0:nch.8    0:pch.4   
 region   Saturation Saturation Saturation Saturation Saturation Saturation
  id       133.5615u -133.5615u -133.5615u  133.9417u  133.9417u -133.9417u
  ibs     -2.656e-20   50.9500a  1.907e-20 -2.257e-20  -25.4620a   50.9510a
  ibd     -243.5854f   51.8273a   51.0394a  -25.4697a  -25.5129a  187.2801a
  vgs      850.2462m -738.0533m -688.2832m  625.3065m  663.8088m -735.1765m
  vds      850.2462m -730.5414m -219.2125m  186.4374m  438.8691m -952.6043m
  vbs        0.       219.2125m    0.         0.      -186.4374m  222.0892m
  vth      513.0624m -556.5176m -488.9735m  503.2063m  553.3045m -556.6004m
  vdsat    238.3276m -182.5502m -190.9071m  126.3471m  122.5567m -180.4964m
  vod      337.1837m -181.5357m -199.3097m  122.1002m  110.5043m -178.5761m
  beta       2.9920m    6.6896m    6.8492m   16.3835m   16.2584m    6.6924m
  gam eff  785.9254m  599.3226m  601.1098m  742.7498m  752.5891m  599.3004m
  gm       573.0189u    1.1745m    1.0304m    1.3800m    1.4888m    1.1899m
  gds       16.5046u   23.8136u  134.4497u  133.6248u   40.1702u   19.9689u
  gmb      164.3310u  355.9027u  347.9030u  391.7570u  376.5201u  358.6871u
  cdtot      1.8576f   23.4806f   28.2551f   10.2538f    9.0726f   22.7136f
  cgtot      3.5734f   42.4678f   43.0644f   17.1795f   16.9049f   42.4227f
  cstot      4.7545f   57.8829f   60.6999f   22.1304f   21.1268f   57.7899f
  cbtot      3.7532f   46.2836f   52.9900f   18.7304f   16.8346f   45.4944f
  cgs        2.7370f   34.2740f   34.5278f   12.7966f   12.6082f   34.1961f
  cgd      582.1569a    6.4885f    6.8588f    3.0147f    2.9147f    6.4851f



 subckt                                                                    
 element  0:m18      0:m5       0:m3       0:m7       0:m9       0:m1      
 model    0:pch.4    0:nch.4    0:nch.8    0:pch.4    0:pch.4    0:pch.4   
 region   Saturation Saturation Saturation Linear     Linear     Saturation
  id      -133.9417u  273.5675u  135.7539u  -70.0765u  -70.0765u -137.8134u
  ibs      1.912e-20 -4.505e-20  -25.4697a   47.2694a  1.001e-20  1.980e-20
  ibd       51.0439a  -49.7982a  -19.5577n   49.9212a   47.2720a  223.9459p
  vgs     -688.2832m  625.3065m  649.4641m -889.8234m -688.2832m -648.3000m
  vds     -222.0892m  200.7821m    1.4992   -32.5577m  -67.4423m   -1.5992 
  vbs        0.         0.      -200.7821m   67.4423m    0.         0.     
  vth     -488.9665m  502.6357m  553.9610m -511.6238m -489.3413m -504.4966m
  vdsat   -190.9115m  126.5209m  114.7216m -312.3300m -190.6748m -149.2450m
  vod     -199.3167m  122.6708m   95.5031m -378.1996m -198.9419m -143.8034m
  beta       6.8492m   32.8685m   16.3015m    6.5827m    6.8488m    8.4212m
  gam eff  601.1098m  740.5981m  753.3093m  600.5386m  601.1098m  676.1708m
  gm         1.0359m    2.8251m    1.5484m  174.5975u  388.4212u    1.3896m
  gds      129.9416u  234.7182u   23.3837u    2.0442m  826.2760u   20.4154u
  gmb      349.6805u  800.2770u  379.0635u   64.8679u  136.3269u  452.1668u
  cdtot     28.1889f   20.1668f    7.9240f   73.9211f   49.6046f   16.1960f
  cgtot     43.0532f   34.3330f   16.6657f   49.8946f   46.4453f   25.0303f
  cstot     60.6989f   44.1167f   20.7383f   68.4984f   63.0942f   37.7797f
  cbtot     52.9653f   37.0286f   15.6360f   54.6255f   55.2939f   33.5446f
  cgs       34.5283f   25.6167f   12.2685f   27.9794f   32.0388f   18.7812f
  cgd        6.8433f    5.9922f    2.9089f   22.4014f   13.8003f    4.8686f




          ***** job concluded
 **info** dc convergence successful at Newton-Raphson method 
 ******  
 

 ****** ac analysis tnom=  25.000 temp=  25.000 ******
 ****** operating point status is all       simulation time is     0.     

   *** parameter vbias =    1.750E+00 ***

    node    =voltage      node    =voltage      node    =voltage

 +0:vb1     = 850.2462m 0:vb2     = 842.7342m 0:vb3     =   1.1117 
 +0:vb4     = 625.3065m 0:vdd     =   1.8000  0:vin     =   1.1517 
 +0:vm10s   =   1.5852  0:vm13s   =   1.5808  0:vm15d   = 186.4374m
 +0:vm17s   =   1.5779  0:vm2d    = 595.3274m 0:vm5d    = 201.3106m
 +0:vm7s    =   1.7659  0:vout    =   1.7500 


 **** voltage sources

 subckt                                   
 element  0:vdd      0:vin      0:vout    
  volts      1.8000     1.1517     1.7500 
  current -838.7936u    0.       -96.8884u
  power      1.5098m    0.       169.5546u

     total voltage source power dissipation=    1.6794m       watts



 **** current sources

 subckt             
 element  0:i1      
  volts      1.2047 
  current  130.0000u
  power   -156.6074u


     total current source power dissipation=-156.6074u       watts


 **** mosfets


 subckt                                                                    
 element  0:m2       0:m4       0:m6       0:m8       0:m10      0:m11     
 model    0:nch.3    0:nch.3    0:pch.8    0:nch.3    0:pch.4    0:pch.4   
 region   Saturation Saturation Saturation Saturation Saturation Saturation
  id       130.0000u  131.5121u -131.5121u  132.9480u -132.9483u -132.9483u
  ibs     -2.117e-20 -2.141e-20  2.018e-20 -2.165e-20   50.9481a  1.898e-20
  ibd     -204.2222a   -1.9661p   11.8826a -311.0809p   51.4199a   51.0323a
  vgs      595.3274m  595.3274m -957.2658m  595.3274m -742.4926m -688.2832m
  vds      595.3274m  842.7342m -957.2658m    1.1117  -473.5100m -214.7732m
  vbs        0.         0.         0.         0.       214.7732m    0.     
  vth      483.2954m  483.2384m -486.6602m  483.1764m -556.0807m -488.9843m
  vdsat    156.6250m  156.6683m -367.7348m  156.7154m -185.9220m -190.9002m
  vod      112.0321m  112.0891m -470.6055m  112.1511m -186.4119m -199.2989m
  beta      13.3517m   13.3518m    1.2747m   13.3520m    6.6856m    6.8492m
  gam eff  511.7809m  511.7809m  608.0220m  511.7808m  599.3569m  601.1098m
  gm         1.5468m    1.5612m  463.5180u    1.5734m    1.1420m    1.0214m
  gds        6.8570u    5.6107u   16.1250u    5.1379u   35.4576u  141.9651u
  gmb      441.6620u  445.7438u  158.3211u  449.2043u  348.4481u  345.0110u
  cdtot     36.1141f   34.5981f    4.8110f   33.3348f   24.5942f   28.3626f
  cgtot    195.3641f  195.2723f    8.8257f  195.2455f   42.5523f   43.0828f
  cstot    236.1322f  236.2061f   12.5748f  236.2461f   58.0083f   60.7016f
  cbtot    117.6033f  116.1567f   10.0610f  114.9134f   47.3986f   53.0288f
  cgs      163.4941f  163.4138f    7.2604f  163.3882f   34.3913f   34.5267f
  cgd       11.7585f   11.7187f    1.3001f   11.7072f    6.5067f    6.8845f



 subckt                                                                    
 element  0:m12      0:m13      0:m14      0:m15      0:m16      0:m17     
 model    0:nch.8    0:pch.4    0:pch.4    0:nch.8    0:nch.8    0:pch.4   
 region   Saturation Saturation Saturation Saturation Saturation Saturation
  id       133.5615u -133.5615u -133.5615u  133.9417u  133.9417u -133.9417u
  ibs     -2.656e-20   50.9500a  1.907e-20 -2.257e-20  -25.4620a   50.9510a
  ibd     -243.5854f   51.8273a   51.0394a  -25.4697a  -25.5129a  187.2801a
  vgs      850.2462m -738.0533m -688.2832m  625.3065m  663.8088m -735.1765m
  vds      850.2462m -730.5414m -219.2125m  186.4374m  438.8691m -952.6043m
  vbs        0.       219.2125m    0.         0.      -186.4374m  222.0892m
  vth      513.0624m -556.5176m -488.9735m  503.2063m  553.3045m -556.6004m
  vdsat    238.3276m -182.5502m -190.9071m  126.3471m  122.5567m -180.4964m
  vod      337.1837m -181.5357m -199.3097m  122.1002m  110.5043m -178.5761m
  beta       2.9920m    6.6896m    6.8492m   16.3835m   16.2584m    6.6924m
  gam eff  785.9254m  599.3226m  601.1098m  742.7498m  752.5891m  599.3004m
  gm       573.0189u    1.1745m    1.0304m    1.3800m    1.4888m    1.1899m
  gds       16.5046u   23.8136u  134.4497u  133.6248u   40.1702u   19.9689u
  gmb      164.3310u  355.9027u  347.9030u  391.7570u  376.5201u  358.6871u
  cdtot      1.8576f   23.4806f   28.2551f   10.2538f    9.0726f   22.7136f
  cgtot      3.5734f   42.4678f   43.0644f   17.1795f   16.9049f   42.4227f
  cstot      4.7545f   57.8829f   60.6999f   22.1304f   21.1268f   57.7899f
  cbtot      3.7532f   46.2836f   52.9900f   18.7304f   16.8346f   45.4944f
  cgs        2.7370f   34.2740f   34.5278f   12.7966f   12.6082f   34.1961f
  cgd      582.1569a    6.4885f    6.8588f    3.0147f    2.9147f    6.4851f



 subckt                                                                    
 element  0:m18      0:m5       0:m3       0:m7       0:m9       0:m1      
 model    0:pch.4    0:nch.4    0:nch.8    0:pch.4    0:pch.4    0:pch.4   
 region   Saturation Saturation Saturation Linear     Linear     Saturation
  id      -133.9417u  273.6912u  135.8884u  -39.0271u  -39.0271u -137.8026u
  ibs      1.912e-20 -4.507e-20  -25.4699a   37.4384a  5.573e-21  1.980e-20
  ibd       51.0439a  -49.7987a  -27.0992n   43.6811a   37.4364a  222.5796p
  vgs     -688.2832m  625.3065m  648.9356m -923.1818m -688.2832m -648.3000m
  vds     -222.0892m  201.3106m    1.5487   -15.9160m  -34.0840m   -1.5987 
  vbs        0.         0.      -201.3106m   34.0840m    0.         0.     
  vth     -488.9665m  502.6348m  553.9518m -500.7859m -489.4217m -504.4990m
  vdsat   -190.9115m  126.5214m  114.4523m -339.3210m -190.6247m -149.2439m
  vod     -199.3167m  122.6717m   94.9838m -422.3959m -198.8615m -143.8010m
  beta       6.8492m   32.8685m   16.3032m    6.5597m    6.8487m    8.4212m
  gam eff  601.1098m  740.5981m  753.3358m  600.8185m  601.1098m  676.1708m
  gm         1.0359m    2.8268m    1.5504m   83.2780u  199.4989u    1.3896m
  gds      129.9416u  233.6122u   23.2585u    2.3991m    1.0363m   20.4168u
  gmb      349.6805u  800.7538u  378.9893u   32.2909u   70.8170u  452.1487u
  cdtot     28.1889f   20.1603f    7.8890f   78.1784f   63.3306f   16.1970f
  cgtot     43.0532f   34.3319f   16.6566f   50.2571f   47.9838f   25.0303f
  cstot     60.6989f   44.1168f   20.7222f   70.0569f   65.5857f   37.7798f
  cbtot     52.9653f   37.0255f   15.5987f   55.6780f   56.1218f   33.5456f
  cgs       34.5283f   25.6165f   12.2549f   27.1776f   29.4281f   18.7813f
  cgd        6.8433f    5.9910f    2.9089f   23.6693f   18.4322f    4.8686f




          ***** job concluded
 **info** dc convergence successful at Newton-Raphson method 
 ******  
 

 ****** ac analysis tnom=  25.000 temp=  25.000 ******
 ****** operating point status is all       simulation time is     0.     

   *** parameter vbias =    1.800E+00 ***

    node    =voltage      node    =voltage      node    =voltage

 +0:vb1     = 850.2462m 0:vb2     = 842.7342m 0:vb3     =   1.1117 
 +0:vb4     = 625.3065m 0:vdd     =   1.8000  0:vin     =   1.1517 
 +0:vm10s   =   1.5852  0:vm13s   =   1.5808  0:vm15d   = 186.4374m
 +0:vm17s   =   1.5779  0:vm2d    = 595.3274m 0:vm5d    = 201.8362m
 +0:vm7s    =   1.8000  0:vout    =   1.8000 


 **** voltage sources

 subckt                                   
 element  0:vdd      0:vin      0:vout    
  volts      1.8000     1.1517     1.8000 
  current -799.7558u    0.      -136.0583u
  power      1.4396m    0.       244.9050u

     total voltage source power dissipation=    1.6845m       watts



 **** current sources

 subckt             
 element  0:i1      
  volts      1.2047 
  current  130.0000u
  power   -156.6074u


     total current source power dissipation=-156.6074u       watts


 **** mosfets


 subckt                                                                    
 element  0:m2       0:m4       0:m6       0:m8       0:m10      0:m11     
 model    0:nch.3    0:nch.3    0:pch.8    0:nch.3    0:pch.4    0:pch.4   
 region   Saturation Saturation Saturation Saturation Saturation Saturation
  id       130.0000u  131.5121u -131.5121u  132.9480u -132.9483u -132.9483u
  ibs     -2.117e-20 -2.141e-20  2.018e-20 -2.165e-20   50.9481a  1.898e-20
  ibd     -204.2222a   -1.9661p   11.8826a -311.0809p   51.4199a   51.0323a
  vgs      595.3274m  595.3274m -957.2658m  595.3274m -742.4926m -688.2832m
  vds      595.3274m  842.7342m -957.2658m    1.1117  -473.5100m -214.7732m
  vbs        0.         0.         0.         0.       214.7732m    0.     
  vth      483.2954m  483.2384m -486.6602m  483.1764m -556.0807m -488.9843m
  vdsat    156.6250m  156.6683m -367.7348m  156.7154m -185.9220m -190.9002m
  vod      112.0321m  112.0891m -470.6055m  112.1511m -186.4119m -199.2989m
  beta      13.3517m   13.3518m    1.2747m   13.3520m    6.6856m    6.8492m
  gam eff  511.7809m  511.7809m  608.0220m  511.7808m  599.3569m  601.1098m
  gm         1.5468m    1.5612m  463.5180u    1.5734m    1.1420m    1.0214m
  gds        6.8570u    5.6107u   16.1250u    5.1379u   35.4576u  141.9651u
  gmb      441.6620u  445.7438u  158.3211u  449.2043u  348.4481u  345.0110u
  cdtot     36.1141f   34.5981f    4.8110f   33.3348f   24.5942f   28.3626f
  cgtot    195.3641f  195.2723f    8.8257f  195.2455f   42.5523f   43.0828f
  cstot    236.1322f  236.2061f   12.5748f  236.2461f   58.0083f   60.7016f
  cbtot    117.6033f  116.1567f   10.0610f  114.9134f   47.3986f   53.0288f
  cgs      163.4941f  163.4138f    7.2604f  163.3882f   34.3913f   34.5267f
  cgd       11.7585f   11.7187f    1.3001f   11.7072f    6.5067f    6.8845f



 subckt                                                                    
 element  0:m12      0:m13      0:m14      0:m15      0:m16      0:m17     
 model    0:nch.8    0:pch.4    0:pch.4    0:nch.8    0:nch.8    0:pch.4   
 region   Saturation Saturation Saturation Saturation Saturation Saturation
  id       133.5615u -133.5615u -133.5615u  133.9417u  133.9417u -133.9417u
  ibs     -2.656e-20   50.9500a  1.907e-20 -2.257e-20  -25.4620a   50.9510a
  ibd     -243.5854f   51.8273a   51.0394a  -25.4697a  -25.5129a  187.2801a
  vgs      850.2462m -738.0533m -688.2832m  625.3065m  663.8088m -735.1765m
  vds      850.2462m -730.5414m -219.2125m  186.4374m  438.8691m -952.6043m
  vbs        0.       219.2125m    0.         0.      -186.4374m  222.0892m
  vth      513.0624m -556.5176m -488.9735m  503.2063m  553.3045m -556.6004m
  vdsat    238.3276m -182.5502m -190.9071m  126.3471m  122.5567m -180.4964m
  vod      337.1837m -181.5357m -199.3097m  122.1002m  110.5043m -178.5761m
  beta       2.9920m    6.6896m    6.8492m   16.3835m   16.2584m    6.6924m
  gam eff  785.9254m  599.3226m  601.1098m  742.7498m  752.5891m  599.3004m
  gm       573.0189u    1.1745m    1.0304m    1.3800m    1.4888m    1.1899m
  gds       16.5046u   23.8136u  134.4497u  133.6248u   40.1702u   19.9689u
  gmb      164.3310u  355.9027u  347.9030u  391.7570u  376.5201u  358.6871u
  cdtot      1.8576f   23.4806f   28.2551f   10.2538f    9.0726f   22.7136f
  cgtot      3.5734f   42.4678f   43.0644f   17.1795f   16.9049f   42.4227f
  cstot      4.7545f   57.8829f   60.6999f   22.1304f   21.1268f   57.7899f
  cbtot      3.7532f   46.2836f   52.9900f   18.7304f   16.8346f   45.4944f
  cgs        2.7370f   34.2740f   34.5278f   12.7966f   12.6082f   34.1961f
  cgd      582.1569a    6.4885f    6.8588f    3.0147f    2.9147f    6.4851f



 subckt                                                                    
 element  0:m18      0:m5       0:m3       0:m7       0:m9       0:m1      
 model    0:pch.4    0:nch.4    0:nch.8    0:pch.4    0:pch.4    0:pch.4   
 region   Saturation Saturation Saturation Linear     Linear     Saturation
  id      -133.9417u  273.8137u  136.0216u  742.0535a -338.7467a -137.7919u
  ibs      1.912e-20 -4.509e-20  -25.4701a  5.351e-28    0.       1.980e-20
  ibd       51.0439a  -49.7992a  -36.7826n    0.       5.356e-28  221.2279p
  vgs     -688.2832m  625.3065m  648.4100m -957.2658m -688.2832m -648.3000m
  vds     -222.0892m  201.8362m    1.5982   269.7842f -269.7842f   -1.5982 
  vbs        0.         0.      -201.8362m  269.7842f    0.         0.     
  vth     -488.9665m  502.6339m  553.9416m -489.5037m -489.5037m -504.5014m
  vdsat   -190.9115m  126.5218m  114.1852m -366.1685m -190.5739m -149.2427m
  vod     -199.3167m  122.6725m   94.4683m -467.7621m -198.7796m -143.7986m
  beta       6.8492m   32.8685m   16.3049m    6.5363m    6.8486m    8.4212m
  gam eff  601.1098m  740.5981m  753.3621m  601.1099m  601.1099m  676.1708m
  gm         1.0359m    2.8286m    1.5523m    1.3733f    1.6046f    1.3895m
  gds      129.9416u  232.5229u   23.1466u    2.7528m    1.2546m   20.4182u
  gmb      349.6805u  801.2251u  378.9096u  556.8591a  576.1344a  452.1306u
  cdtot     28.1889f   20.1540f    7.8549f   71.3898f   75.6319f   16.1979f
  cgtot     43.0532f   34.3307f   16.6474f   50.5074f   48.8869f   25.0303f
  cstot     60.6989f   44.1170f   20.7061f   81.4086f   68.3841f   37.7798f
  cbtot     52.9653f   37.0223f   15.5623f   56.7888f   56.8215f   33.5465f
  cgs       34.5283f   25.6162f   12.2414f   24.5562f   26.4814f   18.7813f
  cgd        6.8433f    5.9897f    2.9089f   26.6129f   22.5641f    4.8686f




          ***** job concluded
 ******  
 

 ****** job statistics summary tnom=  25.000 temp=  25.000 ******

  ******  HSPICE Threads Information  ******

  Command Line Threads Count :     1
  Available CPU Count        :     8
  Actual Threads Count       :     1


  ******  Circuit Statistics  ******
  # nodes       =      51 # elements   =      22
  # resistors   =       0 # capacitors =       0 # inductors   =       0
  # mutual_inds =       0 # vccs       =       0 # vcvs        =       0
  # cccs        =       0 # ccvs       =       0 # volt_srcs   =       3
  # curr_srcs   =       1 # diodes     =       0 # bjts        =       0
  # jfets       =       0 # mosfets    =      18 # U elements  =       0
  # T elements  =       0 # W elements =       0 # B elements  =       0
  # S elements  =       0 # P elements =       0 # va device   =       0
  # vector_srcs =       0 # N elements =       0


  ******  Runtime Statistics (seconds)  ******

  analysis           time    # points   tot. iter  conv.iter
  op point           0.04           1         349
  ac analysis        0.02          74          74
  readin             0.03
  errchk             0.01
  setup              0.00
  output             0.00


           peak memory used         64.26 megabytes
           total cpu time            0.09 seconds
           total elapsed time        0.11 seconds
           job started at     23:41:02 12/02/2021
           job ended   at     23:41:02 12/02/2021


  lic: Release hspice token(s) 
 lic: total license checkout elapse time:        0.02(s)
