 ****** HSPICE -- O-2018.09-SP2 win64 (Feb 25 2019) ******                      
  Copyright (c) 1986 - 2021 by Synopsys, Inc. All Rights Reserved.              
  This software and the associated documentation are proprietary
  to Synopsys, Inc. This software may only be used in accordance
  with the terms and conditions of a written license agreement with
  Synopsys, Inc. All other use, reproduction, or distribution of
  this software is strictly prohibited.
  Input File: cascode_amplifier.sp                                              
  Command line options: C:\synopsys\Hspice_O-2018.09-SP2\WIN64\hspice.com -i cascode_amplifier.sp -o C:\mdsy\proj1\cascode_amplifier.lis
  Start time: Fri Dec  3 10:25:13 2021
  lic:  
  lic: FLEXlm: SDK_11.7.3 
  lic: USER:   admin                HOSTNAME: DESKTOP-3KO7170 
  lic: HOSTID: "d83bbfb49802"       PID:      21948 
  lic: Using FLEXlm license file: 
  lic: 27000@DESKTOP-3KO7170 
  lic: Checkout 1 hspice 
  lic: License/Maintenance for hspice will expire on 30-dec-2029/2019.2019 
  lic: 1(in_use)/99(total) FLOATING license(s) on SERVER 27000@DESKTOP-3KO7170 
  lic:   
 

  
      

Element variations(Local):   element              parameter
 **info** set option symb=1 internally to help for convergence.
 *****************************************************************
 ******  option summary
 ******
 runlvl  = 3         bypass  = 2.0000    
 ******
 

 ****** dc transfer curves tnom=  25.000 temp=  25.000 ******
x

 volt         voltage   
             vm2d       
    0.        595.3274m 
  100.00000u  595.3274m 
  200.00000u  595.3274m 
  300.00000u  595.3274m 
  400.00000u  595.3274m 
  500.00000u  595.3274m 
  600.00000u  595.3274m 
  700.00000u  595.3274m 
  800.00000u  595.3274m 
  900.00000u  595.3274m 
    1.00000m  595.3274m 
    1.10000m  595.3274m 
    1.20000m  595.3274m 
    1.30000m  595.3274m 
    1.40000m  595.3274m 
    1.50000m  595.3274m 
    1.60000m  595.3274m 
    1.70000m  595.3274m 
    1.80000m  595.3274m 
    1.90000m  595.3274m 
    2.00000m  595.3274m 
    2.10000m  595.3274m 
    2.20000m  595.3274m 
    2.30000m  595.3274m 
    2.40000m  595.3274m 
    2.50000m  595.3274m 
    2.60000m  595.3274m 
    2.70000m  595.3274m 
    2.80000m  595.3274m 
    2.90000m  595.3274m 
    3.00000m  595.3274m 
    3.10000m  595.3274m 
    3.20000m  595.3274m 
    3.30000m  595.3274m 
    3.40000m  595.3274m 
    3.50000m  595.3274m 
    3.60000m  595.3274m 
    3.70000m  595.3274m 
    3.80000m  595.3274m 
    3.90000m  595.3274m 
    4.00000m  595.3274m 
    4.10000m  595.3274m 
    4.20000m  595.3274m 
    4.30000m  595.3274m 
    4.40000m  595.3274m 
    4.50000m  595.3274m 
    4.60000m  595.3274m 
    4.70000m  595.3274m 
    4.80000m  595.3274m 
    4.90000m  595.3274m 
    5.00000m  595.3274m 
    5.10000m  595.3274m 
    5.20000m  595.3274m 
    5.30000m  595.3274m 
    5.40000m  595.3274m 
    5.50000m  595.3274m 
    5.60000m  595.3274m 
    5.70000m  595.3274m 
    5.80000m  595.3274m 
    5.90000m  595.3274m 
    6.00000m  595.3274m 
    6.10000m  595.3274m 
    6.20000m  595.3274m 
    6.30000m  595.3274m 
    6.40000m  595.3274m 
    6.50000m  595.3274m 
    6.60000m  595.3274m 
    6.70000m  595.3274m 
    6.80000m  595.3274m 
    6.90000m  595.3274m 
    7.00000m  595.3274m 
    7.10000m  595.3274m 
    7.20000m  595.3274m 
    7.30000m  595.3274m 
    7.40000m  595.3274m 
    7.50000m  595.3274m 
    7.60000m  595.3274m 
    7.70000m  595.3274m 
    7.80000m  595.3274m 
    7.90000m  595.3274m 
    8.00000m  595.3274m 
    8.10000m  595.3274m 
    8.20000m  595.3274m 
    8.30000m  595.3274m 
    8.40000m  595.3274m 
    8.50000m  595.3274m 
    8.60000m  595.3274m 
    8.70000m  595.3274m 
    8.80000m  595.3274m 
    8.90000m  595.3274m 
    9.00000m  595.3274m 
    9.10000m  595.3274m 
    9.20000m  595.3274m 
    9.30000m  595.3274m 
    9.40000m  595.3274m 
    9.50000m  595.3274m 
    9.60000m  595.3274m 
    9.70000m  595.3274m 
    9.80000m  595.3274m 
    9.90000m  595.3274m 
   10.00000m  595.3274m 
   10.10000m  595.3274m 
   10.20000m  595.3274m 
   10.30000m  595.3274m 
   10.40000m  595.3274m 
   10.50000m  595.3274m 
   10.60000m  595.3274m 
   10.70000m  595.3274m 
   10.80000m  595.3274m 
   10.90000m  595.3274m 
   11.00000m  595.3274m 
   11.10000m  595.3274m 
   11.20000m  595.3274m 
   11.30000m  595.3274m 
   11.40000m  595.3274m 
   11.50000m  595.3274m 
   11.60000m  595.3274m 
   11.70000m  595.3274m 
   11.80000m  595.3274m 
   11.90000m  595.3274m 
   12.00000m  595.3274m 
   12.10000m  595.3274m 
   12.20000m  595.3274m 
   12.30000m  595.3274m 
   12.40000m  595.3274m 
   12.50000m  595.3274m 
   12.60000m  595.3274m 
   12.70000m  595.3274m 
   12.80000m  595.3274m 
   12.90000m  595.3274m 
   13.00000m  595.3274m 
   13.10000m  595.3274m 
   13.20000m  595.3274m 
   13.30000m  595.3274m 
   13.40000m  595.3274m 
   13.50000m  595.3274m 
   13.60000m  595.3274m 
   13.70000m  595.3274m 
   13.80000m  595.3274m 
   13.90000m  595.3274m 
   14.00000m  595.3274m 
   14.10000m  595.3274m 
   14.20000m  595.3274m 
   14.30000m  595.3274m 
   14.40000m  595.3274m 
   14.50000m  595.3274m 
   14.60000m  595.3274m 
   14.70000m  595.3274m 
   14.80000m  595.3274m 
   14.90000m  595.3274m 
   15.00000m  595.3274m 
   15.10000m  595.3274m 
   15.20000m  595.3274m 
   15.30000m  595.3274m 
   15.40000m  595.3274m 
   15.50000m  595.3274m 
   15.60000m  595.3274m 
   15.70000m  595.3274m 
   15.80000m  595.3274m 
   15.90000m  595.3274m 
   16.00000m  595.3274m 
   16.10000m  595.3274m 
   16.20000m  595.3274m 
   16.30000m  595.3274m 
   16.40000m  595.3274m 
   16.50000m  595.3274m 
   16.60000m  595.3274m 
   16.70000m  595.3274m 
   16.80000m  595.3274m 
   16.90000m  595.3274m 
   17.00000m  595.3274m 
   17.10000m  595.3274m 
   17.20000m  595.3274m 
   17.30000m  595.3274m 
   17.40000m  595.3274m 
   17.50000m  595.3274m 
   17.60000m  595.3274m 
   17.70000m  595.3274m 
   17.80000m  595.3274m 
   17.90000m  595.3274m 
   18.00000m  595.3274m 
   18.10000m  595.3274m 
   18.20000m  595.3274m 
   18.30000m  595.3274m 
   18.40000m  595.3274m 
   18.50000m  595.3274m 
   18.60000m  595.3274m 
   18.70000m  595.3274m 
   18.80000m  595.3274m 
   18.90000m  595.3274m 
   19.00000m  595.3274m 
   19.10000m  595.3274m 
   19.20000m  595.3274m 
   19.30000m  595.3274m 
   19.40000m  595.3274m 
   19.50000m  595.3274m 
   19.60000m  595.3274m 
   19.70000m  595.3274m 
   19.80000m  595.3274m 
   19.90000m  595.3274m 
   20.00000m  595.3274m 
   20.10000m  595.3274m 
   20.20000m  595.3274m 
   20.30000m  595.3274m 
   20.40000m  595.3274m 
   20.50000m  595.3274m 
   20.60000m  595.3274m 
   20.70000m  595.3274m 
   20.80000m  595.3274m 
   20.90000m  595.3274m 
   21.00000m  595.3274m 
   21.10000m  595.3274m 
   21.20000m  595.3274m 
   21.30000m  595.3274m 
   21.40000m  595.3274m 
   21.50000m  595.3274m 
   21.60000m  595.3274m 
   21.70000m  595.3274m 
   21.80000m  595.3274m 
   21.90000m  595.3274m 
   22.00000m  595.3274m 
   22.10000m  595.3274m 
   22.20000m  595.3274m 
   22.30000m  595.3274m 
   22.40000m  595.3274m 
   22.50000m  595.3274m 
   22.60000m  595.3274m 
   22.70000m  595.3274m 
   22.80000m  595.3274m 
   22.90000m  595.3274m 
   23.00000m  595.3274m 
   23.10000m  595.3274m 
   23.20000m  595.3274m 
   23.30000m  595.3274m 
   23.40000m  595.3274m 
   23.50000m  595.3274m 
   23.60000m  595.3274m 
   23.70000m  595.3274m 
   23.80000m  595.3274m 
   23.90000m  595.3274m 
   24.00000m  595.3274m 
   24.10000m  595.3274m 
   24.20000m  595.3274m 
   24.30000m  595.3274m 
   24.40000m  595.3274m 
   24.50000m  595.3274m 
   24.60000m  595.3274m 
   24.70000m  595.3274m 
   24.80000m  595.3274m 
   24.90000m  595.3274m 
   25.00000m  595.3274m 
   25.10000m  595.3274m 
   25.20000m  595.3274m 
   25.30000m  595.3274m 
   25.40000m  595.3274m 
   25.50000m  595.3274m 
   25.60000m  595.3274m 
   25.70000m  595.3274m 
   25.80000m  595.3274m 
   25.90000m  595.3274m 
   26.00000m  595.3274m 
   26.10000m  595.3274m 
   26.20000m  595.3274m 
   26.30000m  595.3274m 
   26.40000m  595.3274m 
   26.50000m  595.3274m 
   26.60000m  595.3274m 
   26.70000m  595.3274m 
   26.80000m  595.3274m 
   26.90000m  595.3274m 
   27.00000m  595.3274m 
   27.10000m  595.3274m 
   27.20000m  595.3274m 
   27.30000m  595.3274m 
   27.40000m  595.3274m 
   27.50000m  595.3274m 
   27.60000m  595.3274m 
   27.70000m  595.3274m 
   27.80000m  595.3274m 
   27.90000m  595.3274m 
   28.00000m  595.3274m 
   28.10000m  595.3274m 
   28.20000m  595.3274m 
   28.30000m  595.3274m 
   28.40000m  595.3274m 
   28.50000m  595.3274m 
   28.60000m  595.3274m 
   28.70000m  595.3274m 
   28.80000m  595.3274m 
   28.90000m  595.3274m 
   29.00000m  595.3274m 
   29.10000m  595.3274m 
   29.20000m  595.3274m 
   29.30000m  595.3274m 
   29.40000m  595.3274m 
   29.50000m  595.3274m 
   29.60000m  595.3274m 
   29.70000m  595.3274m 
   29.80000m  595.3274m 
   29.90000m  595.3274m 
   30.00000m  595.3274m 
   30.10000m  595.3274m 
   30.20000m  595.3274m 
   30.30000m  595.3274m 
   30.40000m  595.3274m 
   30.50000m  595.3274m 
   30.60000m  595.3274m 
   30.70000m  595.3274m 
   30.80000m  595.3274m 
   30.90000m  595.3274m 
   31.00000m  595.3274m 
   31.10000m  595.3274m 
   31.20000m  595.3274m 
   31.30000m  595.3274m 
   31.40000m  595.3274m 
   31.50000m  595.3274m 
   31.60000m  595.3274m 
   31.70000m  595.3274m 
   31.80000m  595.3274m 
   31.90000m  595.3274m 
   32.00000m  595.3274m 
   32.10000m  595.3274m 
   32.20000m  595.3274m 
   32.30000m  595.3274m 
   32.40000m  595.3274m 
   32.50000m  595.3274m 
   32.60000m  595.3274m 
   32.70000m  595.3274m 
   32.80000m  595.3274m 
   32.90000m  595.3274m 
   33.00000m  595.3274m 
   33.10000m  595.3274m 
   33.20000m  595.3274m 
   33.30000m  595.3274m 
   33.40000m  595.3274m 
   33.50000m  595.3274m 
   33.60000m  595.3274m 
   33.70000m  595.3274m 
   33.80000m  595.3274m 
   33.90000m  595.3274m 
   34.00000m  595.3274m 
   34.10000m  595.3274m 
   34.20000m  595.3274m 
   34.30000m  595.3274m 
   34.40000m  595.3274m 
   34.50000m  595.3274m 
   34.60000m  595.3274m 
   34.70000m  595.3274m 
   34.80000m  595.3274m 
   34.90000m  595.3274m 
   35.00000m  595.3274m 
   35.10000m  595.3274m 
   35.20000m  595.3274m 
   35.30000m  595.3274m 
   35.40000m  595.3274m 
   35.50000m  595.3274m 
   35.60000m  595.3274m 
   35.70000m  595.3274m 
   35.80000m  595.3274m 
   35.90000m  595.3274m 
   36.00000m  595.3274m 
   36.10000m  595.3274m 
   36.20000m  595.3274m 
   36.30000m  595.3274m 
   36.40000m  595.3274m 
   36.50000m  595.3274m 
   36.60000m  595.3274m 
   36.70000m  595.3274m 
   36.80000m  595.3274m 
   36.90000m  595.3274m 
   37.00000m  595.3274m 
   37.10000m  595.3274m 
   37.20000m  595.3274m 
   37.30000m  595.3274m 
   37.40000m  595.3274m 
   37.50000m  595.3274m 
   37.60000m  595.3274m 
   37.70000m  595.3274m 
   37.80000m  595.3274m 
   37.90000m  595.3274m 
   38.00000m  595.3274m 
   38.10000m  595.3274m 
   38.20000m  595.3274m 
   38.30000m  595.3274m 
   38.40000m  595.3274m 
   38.50000m  595.3274m 
   38.60000m  595.3274m 
   38.70000m  595.3274m 
   38.80000m  595.3274m 
   38.90000m  595.3274m 
   39.00000m  595.3274m 
   39.10000m  595.3274m 
   39.20000m  595.3274m 
   39.30000m  595.3274m 
   39.40000m  595.3274m 
   39.50000m  595.3274m 
   39.60000m  595.3274m 
   39.70000m  595.3274m 
   39.80000m  595.3274m 
   39.90000m  595.3274m 
   40.00000m  595.3274m 
   40.10000m  595.3274m 
   40.20000m  595.3274m 
   40.30000m  595.3274m 
   40.40000m  595.3274m 
   40.50000m  595.3274m 
   40.60000m  595.3274m 
   40.70000m  595.3274m 
   40.80000m  595.3274m 
   40.90000m  595.3274m 
   41.00000m  595.3274m 
   41.10000m  595.3274m 
   41.20000m  595.3274m 
   41.30000m  595.3274m 
   41.40000m  595.3274m 
   41.50000m  595.3274m 
   41.60000m  595.3274m 
   41.70000m  595.3274m 
   41.80000m  595.3274m 
   41.90000m  595.3274m 
   42.00000m  595.3274m 
   42.10000m  595.3274m 
   42.20000m  595.3274m 
   42.30000m  595.3274m 
   42.40000m  595.3274m 
   42.50000m  595.3274m 
   42.60000m  595.3274m 
   42.70000m  595.3274m 
   42.80000m  595.3274m 
   42.90000m  595.3274m 
   43.00000m  595.3274m 
   43.10000m  595.3274m 
   43.20000m  595.3274m 
   43.30000m  595.3274m 
   43.40000m  595.3274m 
   43.50000m  595.3274m 
   43.60000m  595.3274m 
   43.70000m  595.3274m 
   43.80000m  595.3274m 
   43.90000m  595.3274m 
   44.00000m  595.3274m 
   44.10000m  595.3274m 
   44.20000m  595.3274m 
   44.30000m  595.3274m 
   44.40000m  595.3274m 
   44.50000m  595.3274m 
   44.60000m  595.3274m 
   44.70000m  595.3274m 
   44.80000m  595.3274m 
   44.90000m  595.3274m 
   45.00000m  595.3274m 
   45.10000m  595.3274m 
   45.20000m  595.3274m 
   45.30000m  595.3274m 
   45.40000m  595.3274m 
   45.50000m  595.3274m 
   45.60000m  595.3274m 
   45.70000m  595.3274m 
   45.80000m  595.3274m 
   45.90000m  595.3274m 
   46.00000m  595.3274m 
   46.10000m  595.3274m 
   46.20000m  595.3274m 
   46.30000m  595.3274m 
   46.40000m  595.3274m 
   46.50000m  595.3274m 
   46.60000m  595.3274m 
   46.70000m  595.3274m 
   46.80000m  595.3274m 
   46.90000m  595.3274m 
   47.00000m  595.3274m 
   47.10000m  595.3274m 
   47.20000m  595.3274m 
   47.30000m  595.3274m 
   47.40000m  595.3274m 
   47.50000m  595.3274m 
   47.60000m  595.3274m 
   47.70000m  595.3274m 
   47.80000m  595.3274m 
   47.90000m  595.3274m 
   48.00000m  595.3274m 
   48.10000m  595.3274m 
   48.20000m  595.3274m 
   48.30000m  595.3274m 
   48.40000m  595.3274m 
   48.50000m  595.3274m 
   48.60000m  595.3274m 
   48.70000m  595.3274m 
   48.80000m  595.3274m 
   48.90000m  595.3274m 
   49.00000m  595.3274m 
   49.10000m  595.3274m 
   49.20000m  595.3274m 
   49.30000m  595.3274m 
   49.40000m  595.3274m 
   49.50000m  595.3274m 
   49.60000m  595.3274m 
   49.70000m  595.3274m 
   49.80000m  595.3274m 
   49.90000m  595.3274m 
   50.00000m  595.3274m 
   50.10000m  595.3274m 
   50.20000m  595.3274m 
   50.30000m  595.3274m 
   50.40000m  595.3274m 
   50.50000m  595.3274m 
   50.60000m  595.3274m 
   50.70000m  595.3274m 
   50.80000m  595.3274m 
   50.90000m  595.3274m 
   51.00000m  595.3274m 
   51.10000m  595.3274m 
   51.20000m  595.3274m 
   51.30000m  595.3274m 
   51.40000m  595.3274m 
   51.50000m  595.3274m 
   51.60000m  595.3274m 
   51.70000m  595.3274m 
   51.80000m  595.3274m 
   51.90000m  595.3274m 
   52.00000m  595.3274m 
   52.10000m  595.3274m 
   52.20000m  595.3274m 
   52.30000m  595.3274m 
   52.40000m  595.3274m 
   52.50000m  595.3274m 
   52.60000m  595.3274m 
   52.70000m  595.3274m 
   52.80000m  595.3274m 
   52.90000m  595.3274m 
   53.00000m  595.3274m 
   53.10000m  595.3274m 
   53.20000m  595.3274m 
   53.30000m  595.3274m 
   53.40000m  595.3274m 
   53.50000m  595.3274m 
   53.60000m  595.3274m 
   53.70000m  595.3274m 
   53.80000m  595.3274m 
   53.90000m  595.3274m 
   54.00000m  595.3274m 
   54.10000m  595.3274m 
   54.20000m  595.3274m 
   54.30000m  595.3274m 
   54.40000m  595.3274m 
   54.50000m  595.3274m 
   54.60000m  595.3274m 
   54.70000m  595.3274m 
   54.80000m  595.3274m 
   54.90000m  595.3274m 
   55.00000m  595.3274m 
   55.10000m  595.3274m 
   55.20000m  595.3274m 
   55.30000m  595.3274m 
   55.40000m  595.3274m 
   55.50000m  595.3274m 
   55.60000m  595.3274m 
   55.70000m  595.3274m 
   55.80000m  595.3274m 
   55.90000m  595.3274m 
   56.00000m  595.3274m 
   56.10000m  595.3274m 
   56.20000m  595.3274m 
   56.30000m  595.3274m 
   56.40000m  595.3274m 
   56.50000m  595.3274m 
   56.60000m  595.3274m 
   56.70000m  595.3274m 
   56.80000m  595.3274m 
   56.90000m  595.3274m 
   57.00000m  595.3274m 
   57.10000m  595.3274m 
   57.20000m  595.3274m 
   57.30000m  595.3274m 
   57.40000m  595.3274m 
   57.50000m  595.3274m 
   57.60000m  595.3274m 
   57.70000m  595.3274m 
   57.80000m  595.3274m 
   57.90000m  595.3274m 
   58.00000m  595.3274m 
   58.10000m  595.3274m 
   58.20000m  595.3274m 
   58.30000m  595.3274m 
   58.40000m  595.3274m 
   58.50000m  595.3274m 
   58.60000m  595.3274m 
   58.70000m  595.3274m 
   58.80000m  595.3274m 
   58.90000m  595.3274m 
   59.00000m  595.3274m 
   59.10000m  595.3274m 
   59.20000m  595.3274m 
   59.30000m  595.3274m 
   59.40000m  595.3274m 
   59.50000m  595.3274m 
   59.60000m  595.3274m 
   59.70000m  595.3274m 
   59.80000m  595.3274m 
   59.90000m  595.3274m 
   60.00000m  595.3274m 
   60.10000m  595.3274m 
   60.20000m  595.3274m 
   60.30000m  595.3274m 
   60.40000m  595.3274m 
   60.50000m  595.3274m 
   60.60000m  595.3274m 
   60.70000m  595.3274m 
   60.80000m  595.3274m 
   60.90000m  595.3274m 
   61.00000m  595.3274m 
   61.10000m  595.3274m 
   61.20000m  595.3274m 
   61.30000m  595.3274m 
   61.40000m  595.3274m 
   61.50000m  595.3274m 
   61.60000m  595.3274m 
   61.70000m  595.3274m 
   61.80000m  595.3274m 
   61.90000m  595.3274m 
   62.00000m  595.3274m 
   62.10000m  595.3274m 
   62.20000m  595.3274m 
   62.30000m  595.3274m 
   62.40000m  595.3274m 
   62.50000m  595.3274m 
   62.60000m  595.3274m 
   62.70000m  595.3274m 
   62.80000m  595.3274m 
   62.90000m  595.3274m 
   63.00000m  595.3274m 
   63.10000m  595.3274m 
   63.20000m  595.3274m 
   63.30000m  595.3274m 
   63.40000m  595.3274m 
   63.50000m  595.3274m 
   63.60000m  595.3274m 
   63.70000m  595.3274m 
   63.80000m  595.3274m 
   63.90000m  595.3274m 
   64.00000m  595.3274m 
   64.10000m  595.3274m 
   64.20000m  595.3274m 
   64.30000m  595.3274m 
   64.40000m  595.3274m 
   64.50000m  595.3274m 
   64.60000m  595.3274m 
   64.70000m  595.3274m 
   64.80000m  595.3274m 
   64.90000m  595.3274m 
   65.00000m  595.3274m 
   65.10000m  595.3274m 
   65.20000m  595.3274m 
   65.30000m  595.3274m 
   65.40000m  595.3274m 
   65.50000m  595.3274m 
   65.60000m  595.3274m 
   65.70000m  595.3274m 
   65.80000m  595.3274m 
   65.90000m  595.3274m 
   66.00000m  595.3274m 
   66.10000m  595.3274m 
   66.20000m  595.3274m 
   66.30000m  595.3274m 
   66.40000m  595.3274m 
   66.50000m  595.3274m 
   66.60000m  595.3274m 
   66.70000m  595.3274m 
   66.80000m  595.3274m 
   66.90000m  595.3274m 
   67.00000m  595.3274m 
   67.10000m  595.3274m 
   67.20000m  595.3274m 
   67.30000m  595.3274m 
   67.40000m  595.3274m 
   67.50000m  595.3274m 
   67.60000m  595.3274m 
   67.70000m  595.3274m 
   67.80000m  595.3274m 
   67.90000m  595.3274m 
   68.00000m  595.3274m 
   68.10000m  595.3274m 
   68.20000m  595.3274m 
   68.30000m  595.3274m 
   68.40000m  595.3274m 
   68.50000m  595.3274m 
   68.60000m  595.3274m 
   68.70000m  595.3274m 
   68.80000m  595.3274m 
   68.90000m  595.3274m 
   69.00000m  595.3274m 
   69.10000m  595.3274m 
   69.20000m  595.3274m 
   69.30000m  595.3274m 
   69.40000m  595.3274m 
   69.50000m  595.3274m 
   69.60000m  595.3274m 
   69.70000m  595.3274m 
   69.80000m  595.3274m 
   69.90000m  595.3274m 
   70.00000m  595.3274m 
   70.10000m  595.3274m 
   70.20000m  595.3274m 
   70.30000m  595.3274m 
   70.40000m  595.3274m 
   70.50000m  595.3274m 
   70.60000m  595.3274m 
   70.70000m  595.3274m 
   70.80000m  595.3274m 
   70.90000m  595.3274m 
   71.00000m  595.3274m 
   71.10000m  595.3274m 
   71.20000m  595.3274m 
   71.30000m  595.3274m 
   71.40000m  595.3274m 
   71.50000m  595.3274m 
   71.60000m  595.3274m 
   71.70000m  595.3274m 
   71.80000m  595.3274m 
   71.90000m  595.3274m 
   72.00000m  595.3274m 
   72.10000m  595.3274m 
   72.20000m  595.3274m 
   72.30000m  595.3274m 
   72.40000m  595.3274m 
   72.50000m  595.3274m 
   72.60000m  595.3274m 
   72.70000m  595.3274m 
   72.80000m  595.3274m 
   72.90000m  595.3274m 
   73.00000m  595.3274m 
   73.10000m  595.3274m 
   73.20000m  595.3274m 
   73.30000m  595.3274m 
   73.40000m  595.3274m 
   73.50000m  595.3274m 
   73.60000m  595.3274m 
   73.70000m  595.3274m 
   73.80000m  595.3274m 
   73.90000m  595.3274m 
   74.00000m  595.3274m 
   74.10000m  595.3274m 
   74.20000m  595.3274m 
   74.30000m  595.3274m 
   74.40000m  595.3274m 
   74.50000m  595.3274m 
   74.60000m  595.3274m 
   74.70000m  595.3274m 
   74.80000m  595.3274m 
   74.90000m  595.3274m 
   75.00000m  595.3274m 
   75.10000m  595.3274m 
   75.20000m  595.3274m 
   75.30000m  595.3274m 
   75.40000m  595.3274m 
   75.50000m  595.3274m 
   75.60000m  595.3274m 
   75.70000m  595.3274m 
   75.80000m  595.3274m 
   75.90000m  595.3274m 
   76.00000m  595.3274m 
   76.10000m  595.3274m 
   76.20000m  595.3274m 
   76.30000m  595.3274m 
   76.40000m  595.3274m 
   76.50000m  595.3274m 
   76.60000m  595.3274m 
   76.70000m  595.3274m 
   76.80000m  595.3274m 
   76.90000m  595.3274m 
   77.00000m  595.3274m 
   77.10000m  595.3274m 
   77.20000m  595.3274m 
   77.30000m  595.3274m 
   77.40000m  595.3274m 
   77.50000m  595.3274m 
   77.60000m  595.3274m 
   77.70000m  595.3274m 
   77.80000m  595.3274m 
   77.90000m  595.3274m 
   78.00000m  595.3274m 
   78.10000m  595.3274m 
   78.20000m  595.3274m 
   78.30000m  595.3274m 
   78.40000m  595.3274m 
   78.50000m  595.3274m 
   78.60000m  595.3274m 
   78.70000m  595.3274m 
   78.80000m  595.3274m 
   78.90000m  595.3274m 
   79.00000m  595.3274m 
   79.10000m  595.3274m 
   79.20000m  595.3274m 
   79.30000m  595.3274m 
   79.40000m  595.3274m 
   79.50000m  595.3274m 
   79.60000m  595.3274m 
   79.70000m  595.3274m 
   79.80000m  595.3274m 
   79.90000m  595.3274m 
   80.00000m  595.3274m 
   80.10000m  595.3274m 
   80.20000m  595.3274m 
   80.30000m  595.3274m 
   80.40000m  595.3274m 
   80.50000m  595.3274m 
   80.60000m  595.3274m 
   80.70000m  595.3274m 
   80.80000m  595.3274m 
   80.90000m  595.3274m 
   81.00000m  595.3274m 
   81.10000m  595.3274m 
   81.20000m  595.3274m 
   81.30000m  595.3274m 
   81.40000m  595.3274m 
   81.50000m  595.3274m 
   81.60000m  595.3274m 
   81.70000m  595.3274m 
   81.80000m  595.3274m 
   81.90000m  595.3274m 
   82.00000m  595.3274m 
   82.10000m  595.3274m 
   82.20000m  595.3274m 
   82.30000m  595.3274m 
   82.40000m  595.3274m 
   82.50000m  595.3274m 
   82.60000m  595.3274m 
   82.70000m  595.3274m 
   82.80000m  595.3274m 
   82.90000m  595.3274m 
   83.00000m  595.3274m 
   83.10000m  595.3274m 
   83.20000m  595.3274m 
   83.30000m  595.3274m 
   83.40000m  595.3274m 
   83.50000m  595.3274m 
   83.60000m  595.3274m 
   83.70000m  595.3274m 
   83.80000m  595.3274m 
   83.90000m  595.3274m 
   84.00000m  595.3274m 
   84.10000m  595.3274m 
   84.20000m  595.3274m 
   84.30000m  595.3274m 
   84.40000m  595.3274m 
   84.50000m  595.3274m 
   84.60000m  595.3274m 
   84.70000m  595.3274m 
   84.80000m  595.3274m 
   84.90000m  595.3274m 
   85.00000m  595.3274m 
   85.10000m  595.3274m 
   85.20000m  595.3274m 
   85.30000m  595.3274m 
   85.40000m  595.3274m 
   85.50000m  595.3274m 
   85.60000m  595.3274m 
   85.70000m  595.3274m 
   85.80000m  595.3274m 
   85.90000m  595.3274m 
   86.00000m  595.3274m 
   86.10000m  595.3274m 
   86.20000m  595.3274m 
   86.30000m  595.3274m 
   86.40000m  595.3274m 
   86.50000m  595.3274m 
   86.60000m  595.3274m 
   86.70000m  595.3274m 
   86.80000m  595.3274m 
   86.90000m  595.3274m 
   87.00000m  595.3274m 
   87.10000m  595.3274m 
   87.20000m  595.3274m 
   87.30000m  595.3274m 
   87.40000m  595.3274m 
   87.50000m  595.3274m 
   87.60000m  595.3274m 
   87.70000m  595.3274m 
   87.80000m  595.3274m 
   87.90000m  595.3274m 
   88.00000m  595.3274m 
   88.10000m  595.3274m 
   88.20000m  595.3274m 
   88.30000m  595.3274m 
   88.40000m  595.3274m 
   88.50000m  595.3274m 
   88.60000m  595.3274m 
   88.70000m  595.3274m 
   88.80000m  595.3274m 
   88.90000m  595.3274m 
   89.00000m  595.3274m 
   89.10000m  595.3274m 
   89.20000m  595.3274m 
   89.30000m  595.3274m 
   89.40000m  595.3274m 
   89.50000m  595.3274m 
   89.60000m  595.3274m 
   89.70000m  595.3274m 
   89.80000m  595.3274m 
   89.90000m  595.3274m 
   90.00000m  595.3274m 
   90.10000m  595.3274m 
   90.20000m  595.3274m 
   90.30000m  595.3274m 
   90.40000m  595.3274m 
   90.50000m  595.3274m 
   90.60000m  595.3274m 
   90.70000m  595.3274m 
   90.80000m  595.3274m 
   90.90000m  595.3274m 
   91.00000m  595.3274m 
   91.10000m  595.3274m 
   91.20000m  595.3274m 
   91.30000m  595.3274m 
   91.40000m  595.3274m 
   91.50000m  595.3274m 
   91.60000m  595.3274m 
   91.70000m  595.3274m 
   91.80000m  595.3274m 
   91.90000m  595.3274m 
   92.00000m  595.3274m 
   92.10000m  595.3274m 
   92.20000m  595.3274m 
   92.30000m  595.3274m 
   92.40000m  595.3274m 
   92.50000m  595.3274m 
   92.60000m  595.3274m 
   92.70000m  595.3274m 
   92.80000m  595.3274m 
   92.90000m  595.3274m 
   93.00000m  595.3274m 
   93.10000m  595.3274m 
   93.20000m  595.3274m 
   93.30000m  595.3274m 
   93.40000m  595.3274m 
   93.50000m  595.3274m 
   93.60000m  595.3274m 
   93.70000m  595.3274m 
   93.80000m  595.3274m 
   93.90000m  595.3274m 
   94.00000m  595.3274m 
   94.10000m  595.3274m 
   94.20000m  595.3274m 
   94.30000m  595.3274m 
   94.40000m  595.3274m 
   94.50000m  595.3274m 
   94.60000m  595.3274m 
   94.70000m  595.3274m 
   94.80000m  595.3274m 
   94.90000m  595.3274m 
   95.00000m  595.3274m 
   95.10000m  595.3274m 
   95.20000m  595.3274m 
   95.30000m  595.3274m 
   95.40000m  595.3274m 
   95.50000m  595.3274m 
   95.60000m  595.3274m 
   95.70000m  595.3274m 
   95.80000m  595.3274m 
   95.90000m  595.3274m 
   96.00000m  595.3274m 
   96.10000m  595.3274m 
   96.20000m  595.3274m 
   96.30000m  595.3274m 
   96.40000m  595.3274m 
   96.50000m  595.3274m 
   96.60000m  595.3274m 
   96.70000m  595.3274m 
   96.80000m  595.3274m 
   96.90000m  595.3274m 
   97.00000m  595.3274m 
   97.10000m  595.3274m 
   97.20000m  595.3274m 
   97.30000m  595.3274m 
   97.40000m  595.3274m 
   97.50000m  595.3274m 
   97.60000m  595.3274m 
   97.70000m  595.3274m 
   97.80000m  595.3274m 
   97.90000m  595.3274m 
   98.00000m  595.3274m 
   98.10000m  595.3274m 
   98.20000m  595.3274m 
   98.30000m  595.3274m 
   98.40000m  595.3274m 
   98.50000m  595.3274m 
   98.60000m  595.3274m 
   98.70000m  595.3274m 
   98.80000m  595.3274m 
   98.90000m  595.3274m 
   99.00000m  595.3274m 
   99.10000m  595.3274m 
   99.20000m  595.3274m 
   99.30000m  595.3274m 
   99.40000m  595.3274m 
   99.50000m  595.3274m 
   99.60000m  595.3274m 
   99.70000m  595.3274m 
   99.80000m  595.3274m 
   99.90000m  595.3274m 
  100.00000m  595.3274m 
  100.10000m  595.3274m 
  100.20000m  595.3274m 
  100.30000m  595.3274m 
  100.40000m  595.3274m 
  100.50000m  595.3274m 
  100.60000m  595.3274m 
  100.70000m  595.3274m 
  100.80000m  595.3274m 
  100.90000m  595.3274m 
  101.00000m  595.3274m 
  101.10000m  595.3274m 
  101.20000m  595.3274m 
  101.30000m  595.3274m 
  101.40000m  595.3274m 
  101.50000m  595.3274m 
  101.60000m  595.3274m 
  101.70000m  595.3274m 
  101.80000m  595.3274m 
  101.90000m  595.3274m 
  102.00000m  595.3274m 
  102.10000m  595.3274m 
  102.20000m  595.3274m 
  102.30000m  595.3274m 
  102.40000m  595.3274m 
  102.50000m  595.3274m 
  102.60000m  595.3274m 
  102.70000m  595.3274m 
  102.80000m  595.3274m 
  102.90000m  595.3274m 
  103.00000m  595.3274m 
  103.10000m  595.3274m 
  103.20000m  595.3274m 
  103.30000m  595.3274m 
  103.40000m  595.3274m 
  103.50000m  595.3274m 
  103.60000m  595.3274m 
  103.70000m  595.3274m 
  103.80000m  595.3274m 
  103.90000m  595.3274m 
  104.00000m  595.3274m 
  104.10000m  595.3274m 
  104.20000m  595.3274m 
  104.30000m  595.3274m 
  104.40000m  595.3274m 
  104.50000m  595.3274m 
  104.60000m  595.3274m 
  104.70000m  595.3274m 
  104.80000m  595.3274m 
  104.90000m  595.3274m 
  105.00000m  595.3274m 
  105.10000m  595.3274m 
  105.20000m  595.3274m 
  105.30000m  595.3274m 
  105.40000m  595.3274m 
  105.50000m  595.3274m 
  105.60000m  595.3274m 
  105.70000m  595.3274m 
  105.80000m  595.3274m 
  105.90000m  595.3274m 
  106.00000m  595.3274m 
  106.10000m  595.3274m 
  106.20000m  595.3274m 
  106.30000m  595.3274m 
  106.40000m  595.3274m 
  106.50000m  595.3274m 
  106.60000m  595.3274m 
  106.70000m  595.3274m 
  106.80000m  595.3274m 
  106.90000m  595.3274m 
  107.00000m  595.3274m 
  107.10000m  595.3274m 
  107.20000m  595.3274m 
  107.30000m  595.3274m 
  107.40000m  595.3274m 
  107.50000m  595.3274m 
  107.60000m  595.3274m 
  107.70000m  595.3274m 
  107.80000m  595.3274m 
  107.90000m  595.3274m 
  108.00000m  595.3274m 
  108.10000m  595.3274m 
  108.20000m  595.3274m 
  108.30000m  595.3274m 
  108.40000m  595.3274m 
  108.50000m  595.3274m 
  108.60000m  595.3274m 
  108.70000m  595.3274m 
  108.80000m  595.3274m 
  108.90000m  595.3274m 
  109.00000m  595.3274m 
  109.10000m  595.3274m 
  109.20000m  595.3274m 
  109.30000m  595.3274m 
  109.40000m  595.3274m 
  109.50000m  595.3274m 
  109.60000m  595.3274m 
  109.70000m  595.3274m 
  109.80000m  595.3274m 
  109.90000m  595.3274m 
  110.00000m  595.3274m 
  110.10000m  595.3274m 
  110.20000m  595.3274m 
  110.30000m  595.3274m 
  110.40000m  595.3274m 
  110.50000m  595.3274m 
  110.60000m  595.3274m 
  110.70000m  595.3274m 
  110.80000m  595.3274m 
  110.90000m  595.3274m 
  111.00000m  595.3274m 
  111.10000m  595.3274m 
  111.20000m  595.3274m 
  111.30000m  595.3274m 
  111.40000m  595.3274m 
  111.50000m  595.3274m 
  111.60000m  595.3274m 
  111.70000m  595.3274m 
  111.80000m  595.3274m 
  111.90000m  595.3274m 
  112.00000m  595.3274m 
  112.10000m  595.3274m 
  112.20000m  595.3274m 
  112.30000m  595.3274m 
  112.40000m  595.3274m 
  112.50000m  595.3274m 
  112.60000m  595.3274m 
  112.70000m  595.3274m 
  112.80000m  595.3274m 
  112.90000m  595.3274m 
  113.00000m  595.3274m 
  113.10000m  595.3274m 
  113.20000m  595.3274m 
  113.30000m  595.3274m 
  113.40000m  595.3274m 
  113.50000m  595.3274m 
  113.60000m  595.3274m 
  113.70000m  595.3274m 
  113.80000m  595.3274m 
  113.90000m  595.3274m 
  114.00000m  595.3274m 
  114.10000m  595.3274m 
  114.20000m  595.3274m 
  114.30000m  595.3274m 
  114.40000m  595.3274m 
  114.50000m  595.3274m 
  114.60000m  595.3274m 
  114.70000m  595.3274m 
  114.80000m  595.3274m 
  114.90000m  595.3274m 
  115.00000m  595.3274m 
  115.10000m  595.3274m 
  115.20000m  595.3274m 
  115.30000m  595.3274m 
  115.40000m  595.3274m 
  115.50000m  595.3274m 
  115.60000m  595.3274m 
  115.70000m  595.3274m 
  115.80000m  595.3274m 
  115.90000m  595.3274m 
  116.00000m  595.3274m 
  116.10000m  595.3274m 
  116.20000m  595.3274m 
  116.30000m  595.3274m 
  116.40000m  595.3274m 
  116.50000m  595.3274m 
  116.60000m  595.3274m 
  116.70000m  595.3274m 
  116.80000m  595.3274m 
  116.90000m  595.3274m 
  117.00000m  595.3274m 
  117.10000m  595.3274m 
  117.20000m  595.3274m 
  117.30000m  595.3274m 
  117.40000m  595.3274m 
  117.50000m  595.3274m 
  117.60000m  595.3274m 
  117.70000m  595.3274m 
  117.80000m  595.3274m 
  117.90000m  595.3274m 
  118.00000m  595.3274m 
  118.10000m  595.3274m 
  118.20000m  595.3274m 
  118.30000m  595.3274m 
  118.40000m  595.3274m 
  118.50000m  595.3274m 
  118.60000m  595.3274m 
  118.70000m  595.3274m 
  118.80000m  595.3274m 
  118.90000m  595.3274m 
  119.00000m  595.3274m 
  119.10000m  595.3274m 
  119.20000m  595.3274m 
  119.30000m  595.3274m 
  119.40000m  595.3274m 
  119.50000m  595.3274m 
  119.60000m  595.3274m 
  119.70000m  595.3274m 
  119.80000m  595.3274m 
  119.90000m  595.3274m 
  120.00000m  595.3274m 
  120.10000m  595.3274m 
  120.20000m  595.3274m 
  120.30000m  595.3274m 
  120.40000m  595.3274m 
  120.50000m  595.3274m 
  120.60000m  595.3274m 
  120.70000m  595.3274m 
  120.80000m  595.3274m 
  120.90000m  595.3274m 
  121.00000m  595.3274m 
  121.10000m  595.3274m 
  121.20000m  595.3274m 
  121.30000m  595.3274m 
  121.40000m  595.3274m 
  121.50000m  595.3274m 
  121.60000m  595.3274m 
  121.70000m  595.3274m 
  121.80000m  595.3274m 
  121.90000m  595.3274m 
  122.00000m  595.3274m 
  122.10000m  595.3274m 
  122.20000m  595.3274m 
  122.30000m  595.3274m 
  122.40000m  595.3274m 
  122.50000m  595.3274m 
  122.60000m  595.3274m 
  122.70000m  595.3274m 
  122.80000m  595.3274m 
  122.90000m  595.3274m 
  123.00000m  595.3274m 
  123.10000m  595.3274m 
  123.20000m  595.3274m 
  123.30000m  595.3274m 
  123.40000m  595.3274m 
  123.50000m  595.3274m 
  123.60000m  595.3274m 
  123.70000m  595.3274m 
  123.80000m  595.3274m 
  123.90000m  595.3274m 
  124.00000m  595.3274m 
  124.10000m  595.3274m 
  124.20000m  595.3274m 
  124.30000m  595.3274m 
  124.40000m  595.3274m 
  124.50000m  595.3274m 
  124.60000m  595.3274m 
  124.70000m  595.3274m 
  124.80000m  595.3274m 
  124.90000m  595.3274m 
  125.00000m  595.3274m 
  125.10000m  595.3274m 
  125.20000m  595.3274m 
  125.30000m  595.3274m 
  125.40000m  595.3274m 
  125.50000m  595.3274m 
  125.60000m  595.3274m 
  125.70000m  595.3274m 
  125.80000m  595.3274m 
  125.90000m  595.3274m 
  126.00000m  595.3274m 
  126.10000m  595.3274m 
  126.20000m  595.3274m 
  126.30000m  595.3274m 
  126.40000m  595.3274m 
  126.50000m  595.3274m 
  126.60000m  595.3274m 
  126.70000m  595.3274m 
  126.80000m  595.3274m 
  126.90000m  595.3274m 
  127.00000m  595.3274m 
  127.10000m  595.3274m 
  127.20000m  595.3274m 
  127.30000m  595.3274m 
  127.40000m  595.3274m 
  127.50000m  595.3274m 
  127.60000m  595.3274m 
  127.70000m  595.3274m 
  127.80000m  595.3274m 
  127.90000m  595.3274m 
  128.00000m  595.3274m 
  128.10000m  595.3274m 
  128.20000m  595.3274m 
  128.30000m  595.3274m 
  128.40000m  595.3274m 
  128.50000m  595.3274m 
  128.60000m  595.3274m 
  128.70000m  595.3274m 
  128.80000m  595.3274m 
  128.90000m  595.3274m 
  129.00000m  595.3274m 
  129.10000m  595.3274m 
  129.20000m  595.3274m 
  129.30000m  595.3274m 
  129.40000m  595.3274m 
  129.50000m  595.3274m 
  129.60000m  595.3274m 
  129.70000m  595.3274m 
  129.80000m  595.3274m 
  129.90000m  595.3274m 
  130.00000m  595.3274m 
  130.10000m  595.3274m 
  130.20000m  595.3274m 
  130.30000m  595.3274m 
  130.40000m  595.3274m 
  130.50000m  595.3274m 
  130.60000m  595.3274m 
  130.70000m  595.3274m 
  130.80000m  595.3274m 
  130.90000m  595.3274m 
  131.00000m  595.3274m 
  131.10000m  595.3274m 
  131.20000m  595.3274m 
  131.30000m  595.3274m 
  131.40000m  595.3274m 
  131.50000m  595.3274m 
  131.60000m  595.3274m 
  131.70000m  595.3274m 
  131.80000m  595.3274m 
  131.90000m  595.3274m 
  132.00000m  595.3274m 
  132.10000m  595.3274m 
  132.20000m  595.3274m 
  132.30000m  595.3274m 
  132.40000m  595.3274m 
  132.50000m  595.3274m 
  132.60000m  595.3274m 
  132.70000m  595.3274m 
  132.80000m  595.3274m 
  132.90000m  595.3274m 
  133.00000m  595.3274m 
  133.10000m  595.3274m 
  133.20000m  595.3274m 
  133.30000m  595.3274m 
  133.40000m  595.3274m 
  133.50000m  595.3274m 
  133.60000m  595.3274m 
  133.70000m  595.3274m 
  133.80000m  595.3274m 
  133.90000m  595.3274m 
  134.00000m  595.3274m 
  134.10000m  595.3274m 
  134.20000m  595.3274m 
  134.30000m  595.3274m 
  134.40000m  595.3274m 
  134.50000m  595.3274m 
  134.60000m  595.3274m 
  134.70000m  595.3274m 
  134.80000m  595.3274m 
  134.90000m  595.3274m 
  135.00000m  595.3274m 
  135.10000m  595.3274m 
  135.20000m  595.3274m 
  135.30000m  595.3274m 
  135.40000m  595.3274m 
  135.50000m  595.3274m 
  135.60000m  595.3274m 
  135.70000m  595.3274m 
  135.80000m  595.3274m 
  135.90000m  595.3274m 
  136.00000m  595.3274m 
  136.10000m  595.3274m 
  136.20000m  595.3274m 
  136.30000m  595.3274m 
  136.40000m  595.3274m 
  136.50000m  595.3274m 
  136.60000m  595.3274m 
  136.70000m  595.3274m 
  136.80000m  595.3274m 
  136.90000m  595.3274m 
  137.00000m  595.3274m 
  137.10000m  595.3274m 
  137.20000m  595.3274m 
  137.30000m  595.3274m 
  137.40000m  595.3274m 
  137.50000m  595.3274m 
  137.60000m  595.3274m 
  137.70000m  595.3274m 
  137.80000m  595.3274m 
  137.90000m  595.3274m 
  138.00000m  595.3274m 
  138.10000m  595.3274m 
  138.20000m  595.3274m 
  138.30000m  595.3274m 
  138.40000m  595.3274m 
  138.50000m  595.3274m 
  138.60000m  595.3274m 
  138.70000m  595.3274m 
  138.80000m  595.3274m 
  138.90000m  595.3274m 
  139.00000m  595.3274m 
  139.10000m  595.3274m 
  139.20000m  595.3274m 
  139.30000m  595.3274m 
  139.40000m  595.3274m 
  139.50000m  595.3274m 
  139.60000m  595.3274m 
  139.70000m  595.3274m 
  139.80000m  595.3274m 
  139.90000m  595.3274m 
  140.00000m  595.3274m 
  140.10000m  595.3274m 
  140.20000m  595.3274m 
  140.30000m  595.3274m 
  140.40000m  595.3274m 
  140.50000m  595.3274m 
  140.60000m  595.3274m 
  140.70000m  595.3274m 
  140.80000m  595.3274m 
  140.90000m  595.3274m 
  141.00000m  595.3274m 
  141.10000m  595.3274m 
  141.20000m  595.3274m 
  141.30000m  595.3274m 
  141.40000m  595.3274m 
  141.50000m  595.3274m 
  141.60000m  595.3274m 
  141.70000m  595.3274m 
  141.80000m  595.3274m 
  141.90000m  595.3274m 
  142.00000m  595.3274m 
  142.10000m  595.3274m 
  142.20000m  595.3274m 
  142.30000m  595.3274m 
  142.40000m  595.3274m 
  142.50000m  595.3274m 
  142.60000m  595.3274m 
  142.70000m  595.3274m 
  142.80000m  595.3274m 
  142.90000m  595.3274m 
  143.00000m  595.3274m 
  143.10000m  595.3274m 
  143.20000m  595.3274m 
  143.30000m  595.3274m 
  143.40000m  595.3274m 
  143.50000m  595.3274m 
  143.60000m  595.3274m 
  143.70000m  595.3274m 
  143.80000m  595.3274m 
  143.90000m  595.3274m 
  144.00000m  595.3274m 
  144.10000m  595.3274m 
  144.20000m  595.3274m 
  144.30000m  595.3274m 
  144.40000m  595.3274m 
  144.50000m  595.3274m 
  144.60000m  595.3274m 
  144.70000m  595.3274m 
  144.80000m  595.3274m 
  144.90000m  595.3274m 
  145.00000m  595.3274m 
  145.10000m  595.3274m 
  145.20000m  595.3274m 
  145.30000m  595.3274m 
  145.40000m  595.3274m 
  145.50000m  595.3274m 
  145.60000m  595.3274m 
  145.70000m  595.3274m 
  145.80000m  595.3274m 
  145.90000m  595.3274m 
  146.00000m  595.3274m 
  146.10000m  595.3274m 
  146.20000m  595.3274m 
  146.30000m  595.3274m 
  146.40000m  595.3274m 
  146.50000m  595.3274m 
  146.60000m  595.3274m 
  146.70000m  595.3274m 
  146.80000m  595.3274m 
  146.90000m  595.3274m 
  147.00000m  595.3274m 
  147.10000m  595.3274m 
  147.20000m  595.3274m 
  147.30000m  595.3274m 
  147.40000m  595.3274m 
  147.50000m  595.3274m 
  147.60000m  595.3274m 
  147.70000m  595.3274m 
  147.80000m  595.3274m 
  147.90000m  595.3274m 
  148.00000m  595.3274m 
  148.10000m  595.3274m 
  148.20000m  595.3274m 
  148.30000m  595.3274m 
  148.40000m  595.3274m 
  148.50000m  595.3274m 
  148.60000m  595.3274m 
  148.70000m  595.3274m 
  148.80000m  595.3274m 
  148.90000m  595.3274m 
  149.00000m  595.3274m 
  149.10000m  595.3274m 
  149.20000m  595.3274m 
  149.30000m  595.3274m 
  149.40000m  595.3274m 
  149.50000m  595.3274m 
  149.60000m  595.3274m 
  149.70000m  595.3274m 
  149.80000m  595.3274m 
  149.90000m  595.3274m 
  150.00000m  595.3274m 
  150.10000m  595.3274m 
  150.20000m  595.3274m 
  150.30000m  595.3274m 
  150.40000m  595.3274m 
  150.50000m  595.3274m 
  150.60000m  595.3274m 
  150.70000m  595.3274m 
  150.80000m  595.3274m 
  150.90000m  595.3274m 
  151.00000m  595.3274m 
  151.10000m  595.3274m 
  151.20000m  595.3274m 
  151.30000m  595.3274m 
  151.40000m  595.3274m 
  151.50000m  595.3274m 
  151.60000m  595.3274m 
  151.70000m  595.3274m 
  151.80000m  595.3274m 
  151.90000m  595.3274m 
  152.00000m  595.3274m 
  152.10000m  595.3274m 
  152.20000m  595.3274m 
  152.30000m  595.3274m 
  152.40000m  595.3274m 
  152.50000m  595.3274m 
  152.60000m  595.3274m 
  152.70000m  595.3274m 
  152.80000m  595.3274m 
  152.90000m  595.3274m 
  153.00000m  595.3274m 
  153.10000m  595.3274m 
  153.20000m  595.3274m 
  153.30000m  595.3274m 
  153.40000m  595.3274m 
  153.50000m  595.3274m 
  153.60000m  595.3274m 
  153.70000m  595.3274m 
  153.80000m  595.3274m 
  153.90000m  595.3274m 
  154.00000m  595.3274m 
  154.10000m  595.3274m 
  154.20000m  595.3274m 
  154.30000m  595.3274m 
  154.40000m  595.3274m 
  154.50000m  595.3274m 
  154.60000m  595.3274m 
  154.70000m  595.3274m 
  154.80000m  595.3274m 
  154.90000m  595.3274m 
  155.00000m  595.3274m 
  155.10000m  595.3274m 
  155.20000m  595.3274m 
  155.30000m  595.3274m 
  155.40000m  595.3274m 
  155.50000m  595.3274m 
  155.60000m  595.3274m 
  155.70000m  595.3274m 
  155.80000m  595.3274m 
  155.90000m  595.3274m 
  156.00000m  595.3274m 
  156.10000m  595.3274m 
  156.20000m  595.3274m 
  156.30000m  595.3274m 
  156.40000m  595.3274m 
  156.50000m  595.3274m 
  156.60000m  595.3274m 
  156.70000m  595.3274m 
  156.80000m  595.3274m 
  156.90000m  595.3274m 
  157.00000m  595.3274m 
  157.10000m  595.3274m 
  157.20000m  595.3274m 
  157.30000m  595.3274m 
  157.40000m  595.3274m 
  157.50000m  595.3274m 
  157.60000m  595.3274m 
  157.70000m  595.3274m 
  157.80000m  595.3274m 
  157.90000m  595.3274m 
  158.00000m  595.3274m 
  158.10000m  595.3274m 
  158.20000m  595.3274m 
  158.30000m  595.3274m 
  158.40000m  595.3274m 
  158.50000m  595.3274m 
  158.60000m  595.3274m 
  158.70000m  595.3274m 
  158.80000m  595.3274m 
  158.90000m  595.3274m 
  159.00000m  595.3274m 
  159.10000m  595.3274m 
  159.20000m  595.3274m 
  159.30000m  595.3274m 
  159.40000m  595.3274m 
  159.50000m  595.3274m 
  159.60000m  595.3274m 
  159.70000m  595.3274m 
  159.80000m  595.3274m 
  159.90000m  595.3274m 
  160.00000m  595.3274m 
  160.10000m  595.3274m 
  160.20000m  595.3274m 
  160.30000m  595.3274m 
  160.40000m  595.3274m 
  160.50000m  595.3274m 
  160.60000m  595.3274m 
  160.70000m  595.3274m 
  160.80000m  595.3274m 
  160.90000m  595.3274m 
  161.00000m  595.3274m 
  161.10000m  595.3274m 
  161.20000m  595.3274m 
  161.30000m  595.3274m 
  161.40000m  595.3274m 
  161.50000m  595.3274m 
  161.60000m  595.3274m 
  161.70000m  595.3274m 
  161.80000m  595.3274m 
  161.90000m  595.3274m 
  162.00000m  595.3274m 
  162.10000m  595.3274m 
  162.20000m  595.3274m 
  162.30000m  595.3274m 
  162.40000m  595.3274m 
  162.50000m  595.3274m 
  162.60000m  595.3274m 
  162.70000m  595.3274m 
  162.80000m  595.3274m 
  162.90000m  595.3274m 
  163.00000m  595.3274m 
  163.10000m  595.3274m 
  163.20000m  595.3274m 
  163.30000m  595.3274m 
  163.40000m  595.3274m 
  163.50000m  595.3274m 
  163.60000m  595.3274m 
  163.70000m  595.3274m 
  163.80000m  595.3274m 
  163.90000m  595.3274m 
  164.00000m  595.3274m 
  164.10000m  595.3274m 
  164.20000m  595.3274m 
  164.30000m  595.3274m 
  164.40000m  595.3274m 
  164.50000m  595.3274m 
  164.60000m  595.3274m 
  164.70000m  595.3274m 
  164.80000m  595.3274m 
  164.90000m  595.3274m 
  165.00000m  595.3274m 
  165.10000m  595.3274m 
  165.20000m  595.3274m 
  165.30000m  595.3274m 
  165.40000m  595.3274m 
  165.50000m  595.3274m 
  165.60000m  595.3274m 
  165.70000m  595.3274m 
  165.80000m  595.3274m 
  165.90000m  595.3274m 
  166.00000m  595.3274m 
  166.10000m  595.3274m 
  166.20000m  595.3274m 
  166.30000m  595.3274m 
  166.40000m  595.3274m 
  166.50000m  595.3274m 
  166.60000m  595.3274m 
  166.70000m  595.3274m 
  166.80000m  595.3274m 
  166.90000m  595.3274m 
  167.00000m  595.3274m 
  167.10000m  595.3274m 
  167.20000m  595.3274m 
  167.30000m  595.3274m 
  167.40000m  595.3274m 
  167.50000m  595.3274m 
  167.60000m  595.3274m 
  167.70000m  595.3274m 
  167.80000m  595.3274m 
  167.90000m  595.3274m 
  168.00000m  595.3274m 
  168.10000m  595.3274m 
  168.20000m  595.3274m 
  168.30000m  595.3274m 
  168.40000m  595.3274m 
  168.50000m  595.3274m 
  168.60000m  595.3274m 
  168.70000m  595.3274m 
  168.80000m  595.3274m 
  168.90000m  595.3274m 
  169.00000m  595.3274m 
  169.10000m  595.3274m 
  169.20000m  595.3274m 
  169.30000m  595.3274m 
  169.40000m  595.3274m 
  169.50000m  595.3274m 
  169.60000m  595.3274m 
  169.70000m  595.3274m 
  169.80000m  595.3274m 
  169.90000m  595.3274m 
  170.00000m  595.3274m 
  170.10000m  595.3274m 
  170.20000m  595.3274m 
  170.30000m  595.3274m 
  170.40000m  595.3274m 
  170.50000m  595.3274m 
  170.60000m  595.3274m 
  170.70000m  595.3274m 
  170.80000m  595.3274m 
  170.90000m  595.3274m 
  171.00000m  595.3274m 
  171.10000m  595.3274m 
  171.20000m  595.3274m 
  171.30000m  595.3274m 
  171.40000m  595.3274m 
  171.50000m  595.3274m 
  171.60000m  595.3274m 
  171.70000m  595.3274m 
  171.80000m  595.3274m 
  171.90000m  595.3274m 
  172.00000m  595.3274m 
  172.10000m  595.3274m 
  172.20000m  595.3274m 
  172.30000m  595.3274m 
  172.40000m  595.3274m 
  172.50000m  595.3274m 
  172.60000m  595.3274m 
  172.70000m  595.3274m 
  172.80000m  595.3274m 
  172.90000m  595.3274m 
  173.00000m  595.3274m 
  173.10000m  595.3274m 
  173.20000m  595.3274m 
  173.30000m  595.3274m 
  173.40000m  595.3274m 
  173.50000m  595.3274m 
  173.60000m  595.3274m 
  173.70000m  595.3274m 
  173.80000m  595.3274m 
  173.90000m  595.3274m 
  174.00000m  595.3274m 
  174.10000m  595.3274m 
  174.20000m  595.3274m 
  174.30000m  595.3274m 
  174.40000m  595.3274m 
  174.50000m  595.3274m 
  174.60000m  595.3274m 
  174.70000m  595.3274m 
  174.80000m  595.3274m 
  174.90000m  595.3274m 
  175.00000m  595.3274m 
  175.10000m  595.3274m 
  175.20000m  595.3274m 
  175.30000m  595.3274m 
  175.40000m  595.3274m 
  175.50000m  595.3274m 
  175.60000m  595.3274m 
  175.70000m  595.3274m 
  175.80000m  595.3274m 
  175.90000m  595.3274m 
  176.00000m  595.3274m 
  176.10000m  595.3274m 
  176.20000m  595.3274m 
  176.30000m  595.3274m 
  176.40000m  595.3274m 
  176.50000m  595.3274m 
  176.60000m  595.3274m 
  176.70000m  595.3274m 
  176.80000m  595.3274m 
  176.90000m  595.3274m 
  177.00000m  595.3274m 
  177.10000m  595.3274m 
  177.20000m  595.3274m 
  177.30000m  595.3274m 
  177.40000m  595.3274m 
  177.50000m  595.3274m 
  177.60000m  595.3274m 
  177.70000m  595.3274m 
  177.80000m  595.3274m 
  177.90000m  595.3274m 
  178.00000m  595.3274m 
  178.10000m  595.3274m 
  178.20000m  595.3274m 
  178.30000m  595.3274m 
  178.40000m  595.3274m 
  178.50000m  595.3274m 
  178.60000m  595.3274m 
  178.70000m  595.3274m 
  178.80000m  595.3274m 
  178.90000m  595.3274m 
  179.00000m  595.3274m 
  179.10000m  595.3274m 
  179.20000m  595.3274m 
  179.30000m  595.3274m 
  179.40000m  595.3274m 
  179.50000m  595.3274m 
  179.60000m  595.3274m 
  179.70000m  595.3274m 
  179.80000m  595.3274m 
  179.90000m  595.3274m 
  180.00000m  595.3274m 
  180.10000m  595.3274m 
  180.20000m  595.3274m 
  180.30000m  595.3274m 
  180.40000m  595.3274m 
  180.50000m  595.3274m 
  180.60000m  595.3274m 
  180.70000m  595.3274m 
  180.80000m  595.3274m 
  180.90000m  595.3274m 
  181.00000m  595.3274m 
  181.10000m  595.3274m 
  181.20000m  595.3274m 
  181.30000m  595.3274m 
  181.40000m  595.3274m 
  181.50000m  595.3274m 
  181.60000m  595.3274m 
  181.70000m  595.3274m 
  181.80000m  595.3274m 
  181.90000m  595.3274m 
  182.00000m  595.3274m 
  182.10000m  595.3274m 
  182.20000m  595.3274m 
  182.30000m  595.3274m 
  182.40000m  595.3274m 
  182.50000m  595.3274m 
  182.60000m  595.3274m 
  182.70000m  595.3274m 
  182.80000m  595.3274m 
  182.90000m  595.3274m 
  183.00000m  595.3274m 
  183.10000m  595.3274m 
  183.20000m  595.3274m 
  183.30000m  595.3274m 
  183.40000m  595.3274m 
  183.50000m  595.3274m 
  183.60000m  595.3274m 
  183.70000m  595.3274m 
  183.80000m  595.3274m 
  183.90000m  595.3274m 
  184.00000m  595.3274m 
  184.10000m  595.3274m 
  184.20000m  595.3274m 
  184.30000m  595.3274m 
  184.40000m  595.3274m 
  184.50000m  595.3274m 
  184.60000m  595.3274m 
  184.70000m  595.3274m 
  184.80000m  595.3274m 
  184.90000m  595.3274m 
  185.00000m  595.3274m 
  185.10000m  595.3274m 
  185.20000m  595.3274m 
  185.30000m  595.3274m 
  185.40000m  595.3274m 
  185.50000m  595.3274m 
  185.60000m  595.3274m 
  185.70000m  595.3274m 
  185.80000m  595.3274m 
  185.90000m  595.3274m 
  186.00000m  595.3274m 
  186.10000m  595.3274m 
  186.20000m  595.3274m 
  186.30000m  595.3274m 
  186.40000m  595.3274m 
  186.50000m  595.3274m 
  186.60000m  595.3274m 
  186.70000m  595.3274m 
  186.80000m  595.3274m 
  186.90000m  595.3274m 
  187.00000m  595.3274m 
  187.10000m  595.3274m 
  187.20000m  595.3274m 
  187.30000m  595.3274m 
  187.40000m  595.3274m 
  187.50000m  595.3274m 
  187.60000m  595.3274m 
  187.70000m  595.3274m 
  187.80000m  595.3274m 
  187.90000m  595.3274m 
  188.00000m  595.3274m 
  188.10000m  595.3274m 
  188.20000m  595.3274m 
  188.30000m  595.3274m 
  188.40000m  595.3274m 
  188.50000m  595.3274m 
  188.60000m  595.3274m 
  188.70000m  595.3274m 
  188.80000m  595.3274m 
  188.90000m  595.3274m 
  189.00000m  595.3274m 
  189.10000m  595.3274m 
  189.20000m  595.3274m 
  189.30000m  595.3274m 
  189.40000m  595.3274m 
  189.50000m  595.3274m 
  189.60000m  595.3274m 
  189.70000m  595.3274m 
  189.80000m  595.3274m 
  189.90000m  595.3274m 
  190.00000m  595.3274m 
  190.10000m  595.3274m 
  190.20000m  595.3274m 
  190.30000m  595.3274m 
  190.40000m  595.3274m 
  190.50000m  595.3274m 
  190.60000m  595.3274m 
  190.70000m  595.3274m 
  190.80000m  595.3274m 
  190.90000m  595.3274m 
  191.00000m  595.3274m 
  191.10000m  595.3274m 
  191.20000m  595.3274m 
  191.30000m  595.3274m 
  191.40000m  595.3274m 
  191.50000m  595.3274m 
  191.60000m  595.3274m 
  191.70000m  595.3274m 
  191.80000m  595.3274m 
  191.90000m  595.3274m 
  192.00000m  595.3274m 
  192.10000m  595.3274m 
  192.20000m  595.3274m 
  192.30000m  595.3274m 
  192.40000m  595.3274m 
  192.50000m  595.3274m 
  192.60000m  595.3274m 
  192.70000m  595.3274m 
  192.80000m  595.3274m 
  192.90000m  595.3274m 
  193.00000m  595.3274m 
  193.10000m  595.3274m 
  193.20000m  595.3274m 
  193.30000m  595.3274m 
  193.40000m  595.3274m 
  193.50000m  595.3274m 
  193.60000m  595.3274m 
  193.70000m  595.3274m 
  193.80000m  595.3274m 
  193.90000m  595.3274m 
  194.00000m  595.3274m 
  194.10000m  595.3274m 
  194.20000m  595.3274m 
  194.30000m  595.3274m 
  194.40000m  595.3274m 
  194.50000m  595.3274m 
  194.60000m  595.3274m 
  194.70000m  595.3274m 
  194.80000m  595.3274m 
  194.90000m  595.3274m 
  195.00000m  595.3274m 
  195.10000m  595.3274m 
  195.20000m  595.3274m 
  195.30000m  595.3274m 
  195.40000m  595.3274m 
  195.50000m  595.3274m 
  195.60000m  595.3274m 
  195.70000m  595.3274m 
  195.80000m  595.3274m 
  195.90000m  595.3274m 
  196.00000m  595.3274m 
  196.10000m  595.3274m 
  196.20000m  595.3274m 
  196.30000m  595.3274m 
  196.40000m  595.3274m 
  196.50000m  595.3274m 
  196.60000m  595.3274m 
  196.70000m  595.3274m 
  196.80000m  595.3274m 
  196.90000m  595.3274m 
  197.00000m  595.3274m 
  197.10000m  595.3274m 
  197.20000m  595.3274m 
  197.30000m  595.3274m 
  197.40000m  595.3274m 
  197.50000m  595.3274m 
  197.60000m  595.3274m 
  197.70000m  595.3274m 
  197.80000m  595.3274m 
  197.90000m  595.3274m 
  198.00000m  595.3274m 
  198.10000m  595.3274m 
  198.20000m  595.3274m 
  198.30000m  595.3274m 
  198.40000m  595.3274m 
  198.50000m  595.3274m 
  198.60000m  595.3274m 
  198.70000m  595.3274m 
  198.80000m  595.3274m 
  198.90000m  595.3274m 
  199.00000m  595.3274m 
  199.10000m  595.3274m 
  199.20000m  595.3274m 
  199.30000m  595.3274m 
  199.40000m  595.3274m 
  199.50000m  595.3274m 
  199.60000m  595.3274m 
  199.70000m  595.3274m 
  199.80000m  595.3274m 
  199.90000m  595.3274m 
  200.00000m  595.3274m 
  200.10000m  595.3274m 
  200.20000m  595.3274m 
  200.30000m  595.3274m 
  200.40000m  595.3274m 
  200.50000m  595.3274m 
  200.60000m  595.3274m 
  200.70000m  595.3274m 
  200.80000m  595.3274m 
  200.90000m  595.3274m 
  201.00000m  595.3274m 
  201.10000m  595.3274m 
  201.20000m  595.3274m 
  201.30000m  595.3274m 
  201.40000m  595.3274m 
  201.50000m  595.3274m 
  201.60000m  595.3274m 
  201.70000m  595.3274m 
  201.80000m  595.3274m 
  201.90000m  595.3274m 
  202.00000m  595.3274m 
  202.10000m  595.3274m 
  202.20000m  595.3274m 
  202.30000m  595.3274m 
  202.40000m  595.3274m 
  202.50000m  595.3274m 
  202.60000m  595.3274m 
  202.70000m  595.3274m 
  202.80000m  595.3274m 
  202.90000m  595.3274m 
  203.00000m  595.3274m 
  203.10000m  595.3274m 
  203.20000m  595.3274m 
  203.30000m  595.3274m 
  203.40000m  595.3274m 
  203.50000m  595.3274m 
  203.60000m  595.3274m 
  203.70000m  595.3274m 
  203.80000m  595.3274m 
  203.90000m  595.3274m 
  204.00000m  595.3274m 
  204.10000m  595.3274m 
  204.20000m  595.3274m 
  204.30000m  595.3274m 
  204.40000m  595.3274m 
  204.50000m  595.3274m 
  204.60000m  595.3274m 
  204.70000m  595.3274m 
  204.80000m  595.3274m 
  204.90000m  595.3274m 
  205.00000m  595.3274m 
  205.10000m  595.3274m 
  205.20000m  595.3274m 
  205.30000m  595.3274m 
  205.40000m  595.3274m 
  205.50000m  595.3274m 
  205.60000m  595.3274m 
  205.70000m  595.3274m 
  205.80000m  595.3274m 
  205.90000m  595.3274m 
  206.00000m  595.3274m 
  206.10000m  595.3274m 
  206.20000m  595.3274m 
  206.30000m  595.3274m 
  206.40000m  595.3274m 
  206.50000m  595.3274m 
  206.60000m  595.3274m 
  206.70000m  595.3274m 
  206.80000m  595.3274m 
  206.90000m  595.3274m 
  207.00000m  595.3274m 
  207.10000m  595.3274m 
  207.20000m  595.3274m 
  207.30000m  595.3274m 
  207.40000m  595.3274m 
  207.50000m  595.3274m 
  207.60000m  595.3274m 
  207.70000m  595.3274m 
  207.80000m  595.3274m 
  207.90000m  595.3274m 
  208.00000m  595.3274m 
  208.10000m  595.3274m 
  208.20000m  595.3274m 
  208.30000m  595.3274m 
  208.40000m  595.3274m 
  208.50000m  595.3274m 
  208.60000m  595.3274m 
  208.70000m  595.3274m 
  208.80000m  595.3274m 
  208.90000m  595.3274m 
  209.00000m  595.3274m 
  209.10000m  595.3274m 
  209.20000m  595.3274m 
  209.30000m  595.3274m 
  209.40000m  595.3274m 
  209.50000m  595.3274m 
  209.60000m  595.3274m 
  209.70000m  595.3274m 
  209.80000m  595.3274m 
  209.90000m  595.3274m 
  210.00000m  595.3274m 
  210.10000m  595.3274m 
  210.20000m  595.3274m 
  210.30000m  595.3274m 
  210.40000m  595.3274m 
  210.50000m  595.3274m 
  210.60000m  595.3274m 
  210.70000m  595.3274m 
  210.80000m  595.3274m 
  210.90000m  595.3274m 
  211.00000m  595.3274m 
  211.10000m  595.3274m 
  211.20000m  595.3274m 
  211.30000m  595.3274m 
  211.40000m  595.3274m 
  211.50000m  595.3274m 
  211.60000m  595.3274m 
  211.70000m  595.3274m 
  211.80000m  595.3274m 
  211.90000m  595.3274m 
  212.00000m  595.3274m 
  212.10000m  595.3274m 
  212.20000m  595.3274m 
  212.30000m  595.3274m 
  212.40000m  595.3274m 
  212.50000m  595.3274m 
  212.60000m  595.3274m 
  212.70000m  595.3274m 
  212.80000m  595.3274m 
  212.90000m  595.3274m 
  213.00000m  595.3274m 
  213.10000m  595.3274m 
  213.20000m  595.3274m 
  213.30000m  595.3274m 
  213.40000m  595.3274m 
  213.50000m  595.3274m 
  213.60000m  595.3274m 
  213.70000m  595.3274m 
  213.80000m  595.3274m 
  213.90000m  595.3274m 
  214.00000m  595.3274m 
  214.10000m  595.3274m 
  214.20000m  595.3274m 
  214.30000m  595.3274m 
  214.40000m  595.3274m 
  214.50000m  595.3274m 
  214.60000m  595.3274m 
  214.70000m  595.3274m 
  214.80000m  595.3274m 
  214.90000m  595.3274m 
  215.00000m  595.3274m 
  215.10000m  595.3274m 
  215.20000m  595.3274m 
  215.30000m  595.3274m 
  215.40000m  595.3274m 
  215.50000m  595.3274m 
  215.60000m  595.3274m 
  215.70000m  595.3274m 
  215.80000m  595.3274m 
  215.90000m  595.3274m 
  216.00000m  595.3274m 
  216.10000m  595.3274m 
  216.20000m  595.3274m 
  216.30000m  595.3274m 
  216.40000m  595.3274m 
  216.50000m  595.3274m 
  216.60000m  595.3274m 
  216.70000m  595.3274m 
  216.80000m  595.3274m 
  216.90000m  595.3274m 
  217.00000m  595.3274m 
  217.10000m  595.3274m 
  217.20000m  595.3274m 
  217.30000m  595.3274m 
  217.40000m  595.3274m 
  217.50000m  595.3274m 
  217.60000m  595.3274m 
  217.70000m  595.3274m 
  217.80000m  595.3274m 
  217.90000m  595.3274m 
  218.00000m  595.3274m 
  218.10000m  595.3274m 
  218.20000m  595.3274m 
  218.30000m  595.3274m 
  218.40000m  595.3274m 
  218.50000m  595.3274m 
  218.60000m  595.3274m 
  218.70000m  595.3274m 
  218.80000m  595.3274m 
  218.90000m  595.3274m 
  219.00000m  595.3274m 
  219.10000m  595.3274m 
  219.20000m  595.3274m 
  219.30000m  595.3274m 
  219.40000m  595.3274m 
  219.50000m  595.3274m 
  219.60000m  595.3274m 
  219.70000m  595.3274m 
  219.80000m  595.3274m 
  219.90000m  595.3274m 
  220.00000m  595.3274m 
  220.10000m  595.3274m 
  220.20000m  595.3274m 
  220.30000m  595.3274m 
  220.40000m  595.3274m 
  220.50000m  595.3274m 
  220.60000m  595.3274m 
  220.70000m  595.3274m 
  220.80000m  595.3274m 
  220.90000m  595.3274m 
  221.00000m  595.3274m 
  221.10000m  595.3274m 
  221.20000m  595.3274m 
  221.30000m  595.3274m 
  221.40000m  595.3274m 
  221.50000m  595.3274m 
  221.60000m  595.3274m 
  221.70000m  595.3274m 
  221.80000m  595.3274m 
  221.90000m  595.3274m 
  222.00000m  595.3274m 
  222.10000m  595.3274m 
  222.20000m  595.3274m 
  222.30000m  595.3274m 
  222.40000m  595.3274m 
  222.50000m  595.3274m 
  222.60000m  595.3274m 
  222.70000m  595.3274m 
  222.80000m  595.3274m 
  222.90000m  595.3274m 
  223.00000m  595.3274m 
  223.10000m  595.3274m 
  223.20000m  595.3274m 
  223.30000m  595.3274m 
  223.40000m  595.3274m 
  223.50000m  595.3274m 
  223.60000m  595.3274m 
  223.70000m  595.3274m 
  223.80000m  595.3274m 
  223.90000m  595.3274m 
  224.00000m  595.3274m 
  224.10000m  595.3274m 
  224.20000m  595.3274m 
  224.30000m  595.3274m 
  224.40000m  595.3274m 
  224.50000m  595.3274m 
  224.60000m  595.3274m 
  224.70000m  595.3274m 
  224.80000m  595.3274m 
  224.90000m  595.3274m 
  225.00000m  595.3274m 
  225.10000m  595.3274m 
  225.20000m  595.3274m 
  225.30000m  595.3274m 
  225.40000m  595.3274m 
  225.50000m  595.3274m 
  225.60000m  595.3274m 
  225.70000m  595.3274m 
  225.80000m  595.3274m 
  225.90000m  595.3274m 
  226.00000m  595.3274m 
  226.10000m  595.3274m 
  226.20000m  595.3274m 
  226.30000m  595.3274m 
  226.40000m  595.3274m 
  226.50000m  595.3274m 
  226.60000m  595.3274m 
  226.70000m  595.3274m 
  226.80000m  595.3274m 
  226.90000m  595.3274m 
  227.00000m  595.3274m 
  227.10000m  595.3274m 
  227.20000m  595.3274m 
  227.30000m  595.3274m 
  227.40000m  595.3274m 
  227.50000m  595.3274m 
  227.60000m  595.3274m 
  227.70000m  595.3274m 
  227.80000m  595.3274m 
  227.90000m  595.3274m 
  228.00000m  595.3274m 
  228.10000m  595.3274m 
  228.20000m  595.3274m 
  228.30000m  595.3274m 
  228.40000m  595.3274m 
  228.50000m  595.3274m 
  228.60000m  595.3274m 
  228.70000m  595.3274m 
  228.80000m  595.3274m 
  228.90000m  595.3274m 
  229.00000m  595.3274m 
  229.10000m  595.3274m 
  229.20000m  595.3274m 
  229.30000m  595.3274m 
  229.40000m  595.3274m 
  229.50000m  595.3274m 
  229.60000m  595.3274m 
  229.70000m  595.3274m 
  229.80000m  595.3274m 
  229.90000m  595.3274m 
  230.00000m  595.3274m 
  230.10000m  595.3274m 
  230.20000m  595.3274m 
  230.30000m  595.3274m 
  230.40000m  595.3274m 
  230.50000m  595.3274m 
  230.60000m  595.3274m 
  230.70000m  595.3274m 
  230.80000m  595.3274m 
  230.90000m  595.3274m 
  231.00000m  595.3274m 
  231.10000m  595.3274m 
  231.20000m  595.3274m 
  231.30000m  595.3274m 
  231.40000m  595.3274m 
  231.50000m  595.3274m 
  231.60000m  595.3274m 
  231.70000m  595.3274m 
  231.80000m  595.3274m 
  231.90000m  595.3274m 
  232.00000m  595.3274m 
  232.10000m  595.3274m 
  232.20000m  595.3274m 
  232.30000m  595.3274m 
  232.40000m  595.3274m 
  232.50000m  595.3274m 
  232.60000m  595.3274m 
  232.70000m  595.3274m 
  232.80000m  595.3274m 
  232.90000m  595.3274m 
  233.00000m  595.3274m 
  233.10000m  595.3274m 
  233.20000m  595.3274m 
  233.30000m  595.3274m 
  233.40000m  595.3274m 
  233.50000m  595.3274m 
  233.60000m  595.3274m 
  233.70000m  595.3274m 
  233.80000m  595.3274m 
  233.90000m  595.3274m 
  234.00000m  595.3274m 
  234.10000m  595.3274m 
  234.20000m  595.3274m 
  234.30000m  595.3274m 
  234.40000m  595.3274m 
  234.50000m  595.3274m 
  234.60000m  595.3274m 
  234.70000m  595.3274m 
  234.80000m  595.3274m 
  234.90000m  595.3274m 
  235.00000m  595.3274m 
  235.10000m  595.3274m 
  235.20000m  595.3274m 
  235.30000m  595.3274m 
  235.40000m  595.3274m 
  235.50000m  595.3274m 
  235.60000m  595.3274m 
  235.70000m  595.3274m 
  235.80000m  595.3274m 
  235.90000m  595.3274m 
  236.00000m  595.3274m 
  236.10000m  595.3274m 
  236.20000m  595.3274m 
  236.30000m  595.3274m 
  236.40000m  595.3274m 
  236.50000m  595.3274m 
  236.60000m  595.3274m 
  236.70000m  595.3274m 
  236.80000m  595.3274m 
  236.90000m  595.3274m 
  237.00000m  595.3274m 
  237.10000m  595.3274m 
  237.20000m  595.3274m 
  237.30000m  595.3274m 
  237.40000m  595.3274m 
  237.50000m  595.3274m 
  237.60000m  595.3274m 
  237.70000m  595.3274m 
  237.80000m  595.3274m 
  237.90000m  595.3274m 
  238.00000m  595.3274m 
  238.10000m  595.3274m 
  238.20000m  595.3274m 
  238.30000m  595.3274m 
  238.40000m  595.3274m 
  238.50000m  595.3274m 
  238.60000m  595.3274m 
  238.70000m  595.3274m 
  238.80000m  595.3274m 
  238.90000m  595.3274m 
  239.00000m  595.3274m 
  239.10000m  595.3274m 
  239.20000m  595.3274m 
  239.30000m  595.3274m 
  239.40000m  595.3274m 
  239.50000m  595.3274m 
  239.60000m  595.3274m 
  239.70000m  595.3274m 
  239.80000m  595.3274m 
  239.90000m  595.3274m 
  240.00000m  595.3274m 
  240.10000m  595.3274m 
  240.20000m  595.3274m 
  240.30000m  595.3274m 
  240.40000m  595.3274m 
  240.50000m  595.3274m 
  240.60000m  595.3274m 
  240.70000m  595.3274m 
  240.80000m  595.3274m 
  240.90000m  595.3274m 
  241.00000m  595.3274m 
  241.10000m  595.3274m 
  241.20000m  595.3274m 
  241.30000m  595.3274m 
  241.40000m  595.3274m 
  241.50000m  595.3274m 
  241.60000m  595.3274m 
  241.70000m  595.3274m 
  241.80000m  595.3274m 
  241.90000m  595.3274m 
  242.00000m  595.3274m 
  242.10000m  595.3274m 
  242.20000m  595.3274m 
  242.30000m  595.3274m 
  242.40000m  595.3274m 
  242.50000m  595.3274m 
  242.60000m  595.3274m 
  242.70000m  595.3274m 
  242.80000m  595.3274m 
  242.90000m  595.3274m 
  243.00000m  595.3274m 
  243.10000m  595.3274m 
  243.20000m  595.3274m 
  243.30000m  595.3274m 
  243.40000m  595.3274m 
  243.50000m  595.3274m 
  243.60000m  595.3274m 
  243.70000m  595.3274m 
  243.80000m  595.3274m 
  243.90000m  595.3274m 
  244.00000m  595.3274m 
  244.10000m  595.3274m 
  244.20000m  595.3274m 
  244.30000m  595.3274m 
  244.40000m  595.3274m 
  244.50000m  595.3274m 
  244.60000m  595.3274m 
  244.70000m  595.3274m 
  244.80000m  595.3274m 
  244.90000m  595.3274m 
  245.00000m  595.3274m 
  245.10000m  595.3274m 
  245.20000m  595.3274m 
  245.30000m  595.3274m 
  245.40000m  595.3274m 
  245.50000m  595.3274m 
  245.60000m  595.3274m 
  245.70000m  595.3274m 
  245.80000m  595.3274m 
  245.90000m  595.3274m 
  246.00000m  595.3274m 
  246.10000m  595.3274m 
  246.20000m  595.3274m 
  246.30000m  595.3274m 
  246.40000m  595.3274m 
  246.50000m  595.3274m 
  246.60000m  595.3274m 
  246.70000m  595.3274m 
  246.80000m  595.3274m 
  246.90000m  595.3274m 
  247.00000m  595.3274m 
  247.10000m  595.3274m 
  247.20000m  595.3274m 
  247.30000m  595.3274m 
  247.40000m  595.3274m 
  247.50000m  595.3274m 
  247.60000m  595.3274m 
  247.70000m  595.3274m 
  247.80000m  595.3274m 
  247.90000m  595.3274m 
  248.00000m  595.3274m 
  248.10000m  595.3274m 
  248.20000m  595.3274m 
  248.30000m  595.3274m 
  248.40000m  595.3274m 
  248.50000m  595.3274m 
  248.60000m  595.3274m 
  248.70000m  595.3274m 
  248.80000m  595.3274m 
  248.90000m  595.3274m 
  249.00000m  595.3274m 
  249.10000m  595.3274m 
  249.20000m  595.3274m 
  249.30000m  595.3274m 
  249.40000m  595.3274m 
  249.50000m  595.3274m 
  249.60000m  595.3274m 
  249.70000m  595.3274m 
  249.80000m  595.3274m 
  249.90000m  595.3274m 
  250.00000m  595.3274m 
  250.10000m  595.3274m 
  250.20000m  595.3274m 
  250.30000m  595.3274m 
  250.40000m  595.3274m 
  250.50000m  595.3274m 
  250.60000m  595.3274m 
  250.70000m  595.3274m 
  250.80000m  595.3274m 
  250.90000m  595.3274m 
  251.00000m  595.3274m 
  251.10000m  595.3274m 
  251.20000m  595.3274m 
  251.30000m  595.3274m 
  251.40000m  595.3274m 
  251.50000m  595.3274m 
  251.60000m  595.3274m 
  251.70000m  595.3274m 
  251.80000m  595.3274m 
  251.90000m  595.3274m 
  252.00000m  595.3274m 
  252.10000m  595.3274m 
  252.20000m  595.3274m 
  252.30000m  595.3274m 
  252.40000m  595.3274m 
  252.50000m  595.3274m 
  252.60000m  595.3274m 
  252.70000m  595.3274m 
  252.80000m  595.3274m 
  252.90000m  595.3274m 
  253.00000m  595.3274m 
  253.10000m  595.3274m 
  253.20000m  595.3274m 
  253.30000m  595.3274m 
  253.40000m  595.3274m 
  253.50000m  595.3274m 
  253.60000m  595.3274m 
  253.70000m  595.3274m 
  253.80000m  595.3274m 
  253.90000m  595.3274m 
  254.00000m  595.3274m 
  254.10000m  595.3274m 
  254.20000m  595.3274m 
  254.30000m  595.3274m 
  254.40000m  595.3274m 
  254.50000m  595.3274m 
  254.60000m  595.3274m 
  254.70000m  595.3274m 
  254.80000m  595.3274m 
  254.90000m  595.3274m 
  255.00000m  595.3274m 
  255.10000m  595.3274m 
  255.20000m  595.3274m 
  255.30000m  595.3274m 
  255.40000m  595.3274m 
  255.50000m  595.3274m 
  255.60000m  595.3274m 
  255.70000m  595.3274m 
  255.80000m  595.3274m 
  255.90000m  595.3274m 
  256.00000m  595.3274m 
  256.10000m  595.3274m 
  256.20000m  595.3274m 
  256.30000m  595.3274m 
  256.40000m  595.3274m 
  256.50000m  595.3274m 
  256.60000m  595.3274m 
  256.70000m  595.3274m 
  256.80000m  595.3274m 
  256.90000m  595.3274m 
  257.00000m  595.3274m 
  257.10000m  595.3274m 
  257.20000m  595.3274m 
  257.30000m  595.3274m 
  257.40000m  595.3274m 
  257.50000m  595.3274m 
  257.60000m  595.3274m 
  257.70000m  595.3274m 
  257.80000m  595.3274m 
  257.90000m  595.3274m 
  258.00000m  595.3274m 
  258.10000m  595.3274m 
  258.20000m  595.3274m 
  258.30000m  595.3274m 
  258.40000m  595.3274m 
  258.50000m  595.3274m 
  258.60000m  595.3274m 
  258.70000m  595.3274m 
  258.80000m  595.3274m 
  258.90000m  595.3274m 
  259.00000m  595.3274m 
  259.10000m  595.3274m 
  259.20000m  595.3274m 
  259.30000m  595.3274m 
  259.40000m  595.3274m 
  259.50000m  595.3274m 
  259.60000m  595.3274m 
  259.70000m  595.3274m 
  259.80000m  595.3274m 
  259.90000m  595.3274m 
  260.00000m  595.3274m 
  260.10000m  595.3274m 
  260.20000m  595.3274m 
  260.30000m  595.3274m 
  260.40000m  595.3274m 
  260.50000m  595.3274m 
  260.60000m  595.3274m 
  260.70000m  595.3274m 
  260.80000m  595.3274m 
  260.90000m  595.3274m 
  261.00000m  595.3274m 
  261.10000m  595.3274m 
  261.20000m  595.3274m 
  261.30000m  595.3274m 
  261.40000m  595.3274m 
  261.50000m  595.3274m 
  261.60000m  595.3274m 
  261.70000m  595.3274m 
  261.80000m  595.3274m 
  261.90000m  595.3274m 
  262.00000m  595.3274m 
  262.10000m  595.3274m 
  262.20000m  595.3274m 
  262.30000m  595.3274m 
  262.40000m  595.3274m 
  262.50000m  595.3274m 
  262.60000m  595.3274m 
  262.70000m  595.3274m 
  262.80000m  595.3274m 
  262.90000m  595.3274m 
  263.00000m  595.3274m 
  263.10000m  595.3274m 
  263.20000m  595.3274m 
  263.30000m  595.3274m 
  263.40000m  595.3274m 
  263.50000m  595.3274m 
  263.60000m  595.3274m 
  263.70000m  595.3274m 
  263.80000m  595.3274m 
  263.90000m  595.3274m 
  264.00000m  595.3274m 
  264.10000m  595.3274m 
  264.20000m  595.3274m 
  264.30000m  595.3274m 
  264.40000m  595.3274m 
  264.50000m  595.3274m 
  264.60000m  595.3274m 
  264.70000m  595.3274m 
  264.80000m  595.3274m 
  264.90000m  595.3274m 
  265.00000m  595.3274m 
  265.10000m  595.3274m 
  265.20000m  595.3274m 
  265.30000m  595.3274m 
  265.40000m  595.3274m 
  265.50000m  595.3274m 
  265.60000m  595.3274m 
  265.70000m  595.3274m 
  265.80000m  595.3274m 
  265.90000m  595.3274m 
  266.00000m  595.3274m 
  266.10000m  595.3274m 
  266.20000m  595.3274m 
  266.30000m  595.3274m 
  266.40000m  595.3274m 
  266.50000m  595.3274m 
  266.60000m  595.3274m 
  266.70000m  595.3274m 
  266.80000m  595.3274m 
  266.90000m  595.3274m 
  267.00000m  595.3274m 
  267.10000m  595.3274m 
  267.20000m  595.3274m 
  267.30000m  595.3274m 
  267.40000m  595.3274m 
  267.50000m  595.3274m 
  267.60000m  595.3274m 
  267.70000m  595.3274m 
  267.80000m  595.3274m 
  267.90000m  595.3274m 
  268.00000m  595.3274m 
  268.10000m  595.3274m 
  268.20000m  595.3274m 
  268.30000m  595.3274m 
  268.40000m  595.3274m 
  268.50000m  595.3274m 
  268.60000m  595.3274m 
  268.70000m  595.3274m 
  268.80000m  595.3274m 
  268.90000m  595.3274m 
  269.00000m  595.3274m 
  269.10000m  595.3274m 
  269.20000m  595.3274m 
  269.30000m  595.3274m 
  269.40000m  595.3274m 
  269.50000m  595.3274m 
  269.60000m  595.3274m 
  269.70000m  595.3274m 
  269.80000m  595.3274m 
  269.90000m  595.3274m 
  270.00000m  595.3274m 
  270.10000m  595.3274m 
  270.20000m  595.3274m 
  270.30000m  595.3274m 
  270.40000m  595.3274m 
  270.50000m  595.3274m 
  270.60000m  595.3274m 
  270.70000m  595.3274m 
  270.80000m  595.3274m 
  270.90000m  595.3274m 
  271.00000m  595.3274m 
  271.10000m  595.3274m 
  271.20000m  595.3274m 
  271.30000m  595.3274m 
  271.40000m  595.3274m 
  271.50000m  595.3274m 
  271.60000m  595.3274m 
  271.70000m  595.3274m 
  271.80000m  595.3274m 
  271.90000m  595.3274m 
  272.00000m  595.3274m 
  272.10000m  595.3274m 
  272.20000m  595.3274m 
  272.30000m  595.3274m 
  272.40000m  595.3274m 
  272.50000m  595.3274m 
  272.60000m  595.3274m 
  272.70000m  595.3274m 
  272.80000m  595.3274m 
  272.90000m  595.3274m 
  273.00000m  595.3274m 
  273.10000m  595.3274m 
  273.20000m  595.3274m 
  273.30000m  595.3274m 
  273.40000m  595.3274m 
  273.50000m  595.3274m 
  273.60000m  595.3274m 
  273.70000m  595.3274m 
  273.80000m  595.3274m 
  273.90000m  595.3274m 
  274.00000m  595.3274m 
  274.10000m  595.3274m 
  274.20000m  595.3274m 
  274.30000m  595.3274m 
  274.40000m  595.3274m 
  274.50000m  595.3274m 
  274.60000m  595.3274m 
  274.70000m  595.3274m 
  274.80000m  595.3274m 
  274.90000m  595.3274m 
  275.00000m  595.3274m 
  275.10000m  595.3274m 
  275.20000m  595.3274m 
  275.30000m  595.3274m 
  275.40000m  595.3274m 
  275.50000m  595.3274m 
  275.60000m  595.3274m 
  275.70000m  595.3274m 
  275.80000m  595.3274m 
  275.90000m  595.3274m 
  276.00000m  595.3274m 
  276.10000m  595.3274m 
  276.20000m  595.3274m 
  276.30000m  595.3274m 
  276.40000m  595.3274m 
  276.50000m  595.3274m 
  276.60000m  595.3274m 
  276.70000m  595.3274m 
  276.80000m  595.3274m 
  276.90000m  595.3274m 
  277.00000m  595.3274m 
  277.10000m  595.3274m 
  277.20000m  595.3274m 
  277.30000m  595.3274m 
  277.40000m  595.3274m 
  277.50000m  595.3274m 
  277.60000m  595.3274m 
  277.70000m  595.3274m 
  277.80000m  595.3274m 
  277.90000m  595.3274m 
  278.00000m  595.3274m 
  278.10000m  595.3274m 
  278.20000m  595.3274m 
  278.30000m  595.3274m 
  278.40000m  595.3274m 
  278.50000m  595.3274m 
  278.60000m  595.3274m 
  278.70000m  595.3274m 
  278.80000m  595.3274m 
  278.90000m  595.3274m 
  279.00000m  595.3274m 
  279.10000m  595.3274m 
  279.20000m  595.3274m 
  279.30000m  595.3274m 
  279.40000m  595.3274m 
  279.50000m  595.3274m 
  279.60000m  595.3274m 
  279.70000m  595.3274m 
  279.80000m  595.3274m 
  279.90000m  595.3274m 
  280.00000m  595.3274m 
  280.10000m  595.3274m 
  280.20000m  595.3274m 
  280.30000m  595.3274m 
  280.40000m  595.3274m 
  280.50000m  595.3274m 
  280.60000m  595.3274m 
  280.70000m  595.3274m 
  280.80000m  595.3274m 
  280.90000m  595.3274m 
  281.00000m  595.3274m 
  281.10000m  595.3274m 
  281.20000m  595.3274m 
  281.30000m  595.3274m 
  281.40000m  595.3274m 
  281.50000m  595.3274m 
  281.60000m  595.3274m 
  281.70000m  595.3274m 
  281.80000m  595.3274m 
  281.90000m  595.3274m 
  282.00000m  595.3274m 
  282.10000m  595.3274m 
  282.20000m  595.3274m 
  282.30000m  595.3274m 
  282.40000m  595.3274m 
  282.50000m  595.3274m 
  282.60000m  595.3274m 
  282.70000m  595.3274m 
  282.80000m  595.3274m 
  282.90000m  595.3274m 
  283.00000m  595.3274m 
  283.10000m  595.3274m 
  283.20000m  595.3274m 
  283.30000m  595.3274m 
  283.40000m  595.3274m 
  283.50000m  595.3274m 
  283.60000m  595.3274m 
  283.70000m  595.3274m 
  283.80000m  595.3274m 
  283.90000m  595.3274m 
  284.00000m  595.3274m 
  284.10000m  595.3274m 
  284.20000m  595.3274m 
  284.30000m  595.3274m 
  284.40000m  595.3274m 
  284.50000m  595.3274m 
  284.60000m  595.3274m 
  284.70000m  595.3274m 
  284.80000m  595.3274m 
  284.90000m  595.3274m 
  285.00000m  595.3274m 
  285.10000m  595.3274m 
  285.20000m  595.3274m 
  285.30000m  595.3274m 
  285.40000m  595.3274m 
  285.50000m  595.3274m 
  285.60000m  595.3274m 
  285.70000m  595.3274m 
  285.80000m  595.3274m 
  285.90000m  595.3274m 
  286.00000m  595.3274m 
  286.10000m  595.3274m 
  286.20000m  595.3274m 
  286.30000m  595.3274m 
  286.40000m  595.3274m 
  286.50000m  595.3274m 
  286.60000m  595.3274m 
  286.70000m  595.3274m 
  286.80000m  595.3274m 
  286.90000m  595.3274m 
  287.00000m  595.3274m 
  287.10000m  595.3274m 
  287.20000m  595.3274m 
  287.30000m  595.3274m 
  287.40000m  595.3274m 
  287.50000m  595.3274m 
  287.60000m  595.3274m 
  287.70000m  595.3274m 
  287.80000m  595.3274m 
  287.90000m  595.3274m 
  288.00000m  595.3274m 
  288.10000m  595.3274m 
  288.20000m  595.3274m 
  288.30000m  595.3274m 
  288.40000m  595.3274m 
  288.50000m  595.3274m 
  288.60000m  595.3274m 
  288.70000m  595.3274m 
  288.80000m  595.3274m 
  288.90000m  595.3274m 
  289.00000m  595.3274m 
  289.10000m  595.3274m 
  289.20000m  595.3274m 
  289.30000m  595.3274m 
  289.40000m  595.3274m 
  289.50000m  595.3274m 
  289.60000m  595.3274m 
  289.70000m  595.3274m 
  289.80000m  595.3274m 
  289.90000m  595.3274m 
  290.00000m  595.3274m 
  290.10000m  595.3274m 
  290.20000m  595.3274m 
  290.30000m  595.3274m 
  290.40000m  595.3274m 
  290.50000m  595.3274m 
  290.60000m  595.3274m 
  290.70000m  595.3274m 
  290.80000m  595.3274m 
  290.90000m  595.3274m 
  291.00000m  595.3274m 
  291.10000m  595.3274m 
  291.20000m  595.3274m 
  291.30000m  595.3274m 
  291.40000m  595.3274m 
  291.50000m  595.3274m 
  291.60000m  595.3274m 
  291.70000m  595.3274m 
  291.80000m  595.3274m 
  291.90000m  595.3274m 
  292.00000m  595.3274m 
  292.10000m  595.3274m 
  292.20000m  595.3274m 
  292.30000m  595.3274m 
  292.40000m  595.3274m 
  292.50000m  595.3274m 
  292.60000m  595.3274m 
  292.70000m  595.3274m 
  292.80000m  595.3274m 
  292.90000m  595.3274m 
  293.00000m  595.3274m 
  293.10000m  595.3274m 
  293.20000m  595.3274m 
  293.30000m  595.3274m 
  293.40000m  595.3274m 
  293.50000m  595.3274m 
  293.60000m  595.3274m 
  293.70000m  595.3274m 
  293.80000m  595.3274m 
  293.90000m  595.3274m 
  294.00000m  595.3274m 
  294.10000m  595.3274m 
  294.20000m  595.3274m 
  294.30000m  595.3274m 
  294.40000m  595.3274m 
  294.50000m  595.3274m 
  294.60000m  595.3274m 
  294.70000m  595.3274m 
  294.80000m  595.3274m 
  294.90000m  595.3274m 
  295.00000m  595.3274m 
  295.10000m  595.3274m 
  295.20000m  595.3274m 
  295.30000m  595.3274m 
  295.40000m  595.3274m 
  295.50000m  595.3274m 
  295.60000m  595.3274m 
  295.70000m  595.3274m 
  295.80000m  595.3274m 
  295.90000m  595.3274m 
  296.00000m  595.3274m 
  296.10000m  595.3274m 
  296.20000m  595.3274m 
  296.30000m  595.3274m 
  296.40000m  595.3274m 
  296.50000m  595.3274m 
  296.60000m  595.3274m 
  296.70000m  595.3274m 
  296.80000m  595.3274m 
  296.90000m  595.3274m 
  297.00000m  595.3274m 
  297.10000m  595.3274m 
  297.20000m  595.3274m 
  297.30000m  595.3274m 
  297.40000m  595.3274m 
  297.50000m  595.3274m 
  297.60000m  595.3274m 
  297.70000m  595.3274m 
  297.80000m  595.3274m 
  297.90000m  595.3274m 
  298.00000m  595.3274m 
  298.10000m  595.3274m 
  298.20000m  595.3274m 
  298.30000m  595.3274m 
  298.40000m  595.3274m 
  298.50000m  595.3274m 
  298.60000m  595.3274m 
  298.70000m  595.3274m 
  298.80000m  595.3274m 
  298.90000m  595.3274m 
  299.00000m  595.3274m 
  299.10000m  595.3274m 
  299.20000m  595.3274m 
  299.30000m  595.3274m 
  299.40000m  595.3274m 
  299.50000m  595.3274m 
  299.60000m  595.3274m 
  299.70000m  595.3274m 
  299.80000m  595.3274m 
  299.90000m  595.3274m 
  300.00000m  595.3274m 
  300.10000m  595.3274m 
  300.20000m  595.3274m 
  300.30000m  595.3274m 
  300.40000m  595.3274m 
  300.50000m  595.3274m 
  300.60000m  595.3274m 
  300.70000m  595.3274m 
  300.80000m  595.3274m 
  300.90000m  595.3274m 
  301.00000m  595.3274m 
  301.10000m  595.3274m 
  301.20000m  595.3274m 
  301.30000m  595.3274m 
  301.40000m  595.3274m 
  301.50000m  595.3274m 
  301.60000m  595.3274m 
  301.70000m  595.3274m 
  301.80000m  595.3274m 
  301.90000m  595.3274m 
  302.00000m  595.3274m 
  302.10000m  595.3274m 
  302.20000m  595.3274m 
  302.30000m  595.3274m 
  302.40000m  595.3274m 
  302.50000m  595.3274m 
  302.60000m  595.3274m 
  302.70000m  595.3274m 
  302.80000m  595.3274m 
  302.90000m  595.3274m 
  303.00000m  595.3274m 
  303.10000m  595.3274m 
  303.20000m  595.3274m 
  303.30000m  595.3274m 
  303.40000m  595.3274m 
  303.50000m  595.3274m 
  303.60000m  595.3274m 
  303.70000m  595.3274m 
  303.80000m  595.3274m 
  303.90000m  595.3274m 
  304.00000m  595.3274m 
  304.10000m  595.3274m 
  304.20000m  595.3274m 
  304.30000m  595.3274m 
  304.40000m  595.3274m 
  304.50000m  595.3274m 
  304.60000m  595.3274m 
  304.70000m  595.3274m 
  304.80000m  595.3274m 
  304.90000m  595.3274m 
  305.00000m  595.3274m 
  305.10000m  595.3274m 
  305.20000m  595.3274m 
  305.30000m  595.3274m 
  305.40000m  595.3274m 
  305.50000m  595.3274m 
  305.60000m  595.3274m 
  305.70000m  595.3274m 
  305.80000m  595.3274m 
  305.90000m  595.3274m 
  306.00000m  595.3274m 
  306.10000m  595.3274m 
  306.20000m  595.3274m 
  306.30000m  595.3274m 
  306.40000m  595.3274m 
  306.50000m  595.3274m 
  306.60000m  595.3274m 
  306.70000m  595.3274m 
  306.80000m  595.3274m 
  306.90000m  595.3274m 
  307.00000m  595.3274m 
  307.10000m  595.3274m 
  307.20000m  595.3274m 
  307.30000m  595.3274m 
  307.40000m  595.3274m 
  307.50000m  595.3274m 
  307.60000m  595.3274m 
  307.70000m  595.3274m 
  307.80000m  595.3274m 
  307.90000m  595.3274m 
  308.00000m  595.3274m 
  308.10000m  595.3274m 
  308.20000m  595.3274m 
  308.30000m  595.3274m 
  308.40000m  595.3274m 
  308.50000m  595.3274m 
  308.60000m  595.3274m 
  308.70000m  595.3274m 
  308.80000m  595.3274m 
  308.90000m  595.3274m 
  309.00000m  595.3274m 
  309.10000m  595.3274m 
  309.20000m  595.3274m 
  309.30000m  595.3274m 
  309.40000m  595.3274m 
  309.50000m  595.3274m 
  309.60000m  595.3274m 
  309.70000m  595.3274m 
  309.80000m  595.3274m 
  309.90000m  595.3274m 
  310.00000m  595.3274m 
  310.10000m  595.3274m 
  310.20000m  595.3274m 
  310.30000m  595.3274m 
  310.40000m  595.3274m 
  310.50000m  595.3274m 
  310.60000m  595.3274m 
  310.70000m  595.3274m 
  310.80000m  595.3274m 
  310.90000m  595.3274m 
  311.00000m  595.3274m 
  311.10000m  595.3274m 
  311.20000m  595.3274m 
  311.30000m  595.3274m 
  311.40000m  595.3274m 
  311.50000m  595.3274m 
  311.60000m  595.3274m 
  311.70000m  595.3274m 
  311.80000m  595.3274m 
  311.90000m  595.3274m 
  312.00000m  595.3274m 
  312.10000m  595.3274m 
  312.20000m  595.3274m 
  312.30000m  595.3274m 
  312.40000m  595.3274m 
  312.50000m  595.3274m 
  312.60000m  595.3274m 
  312.70000m  595.3274m 
  312.80000m  595.3274m 
  312.90000m  595.3274m 
  313.00000m  595.3274m 
  313.10000m  595.3274m 
  313.20000m  595.3274m 
  313.30000m  595.3274m 
  313.40000m  595.3274m 
  313.50000m  595.3274m 
  313.60000m  595.3274m 
  313.70000m  595.3274m 
[...]
    1.72680   595.3274m 
    1.72690   595.3274m 
    1.72700   595.3274m 
    1.72710   595.3274m 
    1.72720   595.3274m 
    1.72730   595.3274m 
    1.72740   595.3274m 
    1.72750   595.3274m 
    1.72760   595.3274m 
    1.72770   595.3274m 
    1.72780   595.3274m 
    1.72790   595.3274m 
    1.72800   595.3274m 
    1.72810   595.3274m 
    1.72820   595.3274m 
    1.72830   595.3274m 
    1.72840   595.3274m 
    1.72850   595.3274m 
    1.72860   595.3274m 
    1.72870   595.3274m 
    1.72880   595.3274m 
    1.72890   595.3274m 
    1.72900   595.3274m 
    1.72910   595.3274m 
    1.72920   595.3274m 
    1.72930   595.3274m 
    1.72940   595.3274m 
    1.72950   595.3274m 
    1.72960   595.3274m 
    1.72970   595.3274m 
    1.72980   595.3274m 
    1.72990   595.3274m 
    1.73000   595.3274m 
    1.73010   595.3274m 
    1.73020   595.3274m 
    1.73030   595.3274m 
    1.73040   595.3274m 
    1.73050   595.3274m 
    1.73060   595.3274m 
    1.73070   595.3274m 
    1.73080   595.3274m 
    1.73090   595.3274m 
    1.73100   595.3274m 
    1.73110   595.3274m 
    1.73120   595.3274m 
    1.73130   595.3274m 
    1.73140   595.3274m 
    1.73150   595.3274m 
    1.73160   595.3274m 
    1.73170   595.3274m 
    1.73180   595.3274m 
    1.73190   595.3274m 
    1.73200   595.3274m 
    1.73210   595.3274m 
    1.73220   595.3274m 
    1.73230   595.3274m 
    1.73240   595.3274m 
    1.73250   595.3274m 
    1.73260   595.3274m 
    1.73270   595.3274m 
    1.73280   595.3274m 
    1.73290   595.3274m 
    1.73300   595.3274m 
    1.73310   595.3274m 
    1.73320   595.3274m 
    1.73330   595.3274m 
    1.73340   595.3274m 
    1.73350   595.3274m 
    1.73360   595.3274m 
    1.73370   595.3274m 
    1.73380   595.3274m 
    1.73390   595.3274m 
    1.73400   595.3274m 
    1.73410   595.3274m 
    1.73420   595.3274m 
    1.73430   595.3274m 
    1.73440   595.3274m 
    1.73450   595.3274m 
    1.73460   595.3274m 
    1.73470   595.3274m 
    1.73480   595.3274m 
    1.73490   595.3274m 
    1.73500   595.3274m 
    1.73510   595.3274m 
    1.73520   595.3274m 
    1.73530   595.3274m 
    1.73540   595.3274m 
    1.73550   595.3274m 
    1.73560   595.3274m 
    1.73570   595.3274m 
    1.73580   595.3274m 
    1.73590   595.3274m 
    1.73600   595.3274m 
    1.73610   595.3274m 
    1.73620   595.3274m 
    1.73630   595.3274m 
    1.73640   595.3274m 
    1.73650   595.3274m 
    1.73660   595.3274m 
    1.73670   595.3274m 
    1.73680   595.3274m 
    1.73690   595.3274m 
    1.73700   595.3274m 
    1.73710   595.3274m 
    1.73720   595.3274m 
    1.73730   595.3274m 
    1.73740   595.3274m 
    1.73750   595.3274m 
    1.73760   595.3274m 
    1.73770   595.3274m 
    1.73780   595.3274m 
    1.73790   595.3274m 
    1.73800   595.3274m 
    1.73810   595.3274m 
    1.73820   595.3274m 
    1.73830   595.3274m 
    1.73840   595.3274m 
    1.73850   595.3274m 
    1.73860   595.3274m 
    1.73870   595.3274m 
    1.73880   595.3274m 
    1.73890   595.3274m 
    1.73900   595.3274m 
    1.73910   595.3274m 
    1.73920   595.3274m 
    1.73930   595.3274m 
    1.73940   595.3274m 
    1.73950   595.3274m 
    1.73960   595.3274m 
    1.73970   595.3274m 
    1.73980   595.3274m 
    1.73990   595.3274m 
    1.74000   595.3274m 
    1.74010   595.3274m 
    1.74020   595.3274m 
    1.74030   595.3274m 
    1.74040   595.3274m 
    1.74050   595.3274m 
    1.74060   595.3274m 
    1.74070   595.3274m 
    1.74080   595.3274m 
    1.74090   595.3274m 
    1.74100   595.3274m 
    1.74110   595.3274m 
    1.74120   595.3274m 
    1.74130   595.3274m 
    1.74140   595.3274m 
    1.74150   595.3274m 
    1.74160   595.3274m 
    1.74170   595.3274m 
    1.74180   595.3274m 
    1.74190   595.3274m 
    1.74200   595.3274m 
    1.74210   595.3274m 
    1.74220   595.3274m 
    1.74230   595.3274m 
    1.74240   595.3274m 
    1.74250   595.3274m 
    1.74260   595.3274m 
    1.74270   595.3274m 
    1.74280   595.3274m 
    1.74290   595.3274m 
    1.74300   595.3274m 
    1.74310   595.3274m 
    1.74320   595.3274m 
    1.74330   595.3274m 
    1.74340   595.3274m 
    1.74350   595.3274m 
    1.74360   595.3274m 
    1.74370   595.3274m 
    1.74380   595.3274m 
    1.74390   595.3274m 
    1.74400   595.3274m 
    1.74410   595.3274m 
    1.74420   595.3274m 
    1.74430   595.3274m 
    1.74440   595.3274m 
    1.74450   595.3274m 
    1.74460   595.3274m 
    1.74470   595.3274m 
    1.74480   595.3274m 
    1.74490   595.3274m 
    1.74500   595.3274m 
    1.74510   595.3274m 
    1.74520   595.3274m 
    1.74530   595.3274m 
    1.74540   595.3274m 
    1.74550   595.3274m 
    1.74560   595.3274m 
    1.74570   595.3274m 
    1.74580   595.3274m 
    1.74590   595.3274m 
    1.74600   595.3274m 
    1.74610   595.3274m 
    1.74620   595.3274m 
    1.74630   595.3274m 
    1.74640   595.3274m 
    1.74650   595.3274m 
    1.74660   595.3274m 
    1.74670   595.3274m 
    1.74680   595.3274m 
    1.74690   595.3274m 
    1.74700   595.3274m 
    1.74710   595.3274m 
    1.74720   595.3274m 
    1.74730   595.3274m 
    1.74740   595.3274m 
    1.74750   595.3274m 
    1.74760   595.3274m 
    1.74770   595.3274m 
    1.74780   595.3274m 
    1.74790   595.3274m 
    1.74800   595.3274m 
    1.74810   595.3274m 
    1.74820   595.3274m 
    1.74830   595.3274m 
    1.74840   595.3274m 
    1.74850   595.3274m 
    1.74860   595.3274m 
    1.74870   595.3274m 
    1.74880   595.3274m 
    1.74890   595.3274m 
    1.74900   595.3274m 
    1.74910   595.3274m 
    1.74920   595.3274m 
    1.74930   595.3274m 
    1.74940   595.3274m 
    1.74950   595.3274m 
    1.74960   595.3274m 
    1.74970   595.3274m 
    1.74980   595.3274m 
    1.74990   595.3274m 
    1.75000   595.3274m 
    1.75010   595.3274m 
    1.75020   595.3274m 
    1.75030   595.3274m 
    1.75040   595.3274m 
    1.75050   595.3274m 
    1.75060   595.3274m 
    1.75070   595.3274m 
    1.75080   595.3274m 
    1.75090   595.3274m 
    1.75100   595.3274m 
    1.75110   595.3274m 
    1.75120   595.3274m 
    1.75130   595.3274m 
    1.75140   595.3274m 
    1.75150   595.3274m 
    1.75160   595.3274m 
    1.75170   595.3274m 
    1.75180   595.3274m 
    1.75190   595.3274m 
    1.75200   595.3274m 
    1.75210   595.3274m 
    1.75220   595.3274m 
    1.75230   595.3274m 
    1.75240   595.3274m 
    1.75250   595.3274m 
    1.75260   595.3274m 
    1.75270   595.3274m 
    1.75280   595.3274m 
    1.75290   595.3274m 
    1.75300   595.3274m 
    1.75310   595.3274m 
    1.75320   595.3274m 
    1.75330   595.3274m 
    1.75340   595.3274m 
    1.75350   595.3274m 
    1.75360   595.3274m 
    1.75370   595.3274m 
    1.75380   595.3274m 
    1.75390   595.3274m 
    1.75400   595.3274m 
    1.75410   595.3274m 
    1.75420   595.3274m 
    1.75430   595.3274m 
    1.75440   595.3274m 
    1.75450   595.3274m 
    1.75460   595.3274m 
    1.75470   595.3274m 
    1.75480   595.3274m 
    1.75490   595.3274m 
    1.75500   595.3274m 
    1.75510   595.3274m 
    1.75520   595.3274m 
    1.75530   595.3274m 
    1.75540   595.3274m 
    1.75550   595.3274m 
    1.75560   595.3274m 
    1.75570   595.3274m 
    1.75580   595.3274m 
    1.75590   595.3274m 
    1.75600   595.3274m 
    1.75610   595.3274m 
    1.75620   595.3274m 
    1.75630   595.3274m 
    1.75640   595.3274m 
    1.75650   595.3274m 
    1.75660   595.3274m 
    1.75670   595.3274m 
    1.75680   595.3274m 
    1.75690   595.3274m 
    1.75700   595.3274m 
    1.75710   595.3274m 
    1.75720   595.3274m 
    1.75730   595.3274m 
    1.75740   595.3274m 
    1.75750   595.3274m 
    1.75760   595.3274m 
    1.75770   595.3274m 
    1.75780   595.3274m 
    1.75790   595.3274m 
    1.75800   595.3274m 
    1.75810   595.3274m 
    1.75820   595.3274m 
    1.75830   595.3274m 
    1.75840   595.3274m 
    1.75850   595.3274m 
    1.75860   595.3274m 
    1.75870   595.3274m 
    1.75880   595.3274m 
    1.75890   595.3274m 
    1.75900   595.3274m 
    1.75910   595.3274m 
    1.75920   595.3274m 
    1.75930   595.3274m 
    1.75940   595.3274m 
    1.75950   595.3274m 
    1.75960   595.3274m 
    1.75970   595.3274m 
    1.75980   595.3274m 
    1.75990   595.3274m 
    1.76000   595.3274m 
    1.76010   595.3274m 
    1.76020   595.3274m 
    1.76030   595.3274m 
    1.76040   595.3274m 
    1.76050   595.3274m 
    1.76060   595.3274m 
    1.76070   595.3274m 
    1.76080   595.3274m 
    1.76090   595.3274m 
    1.76100   595.3274m 
    1.76110   595.3274m 
    1.76120   595.3274m 
    1.76130   595.3274m 
    1.76140   595.3274m 
    1.76150   595.3274m 
    1.76160   595.3274m 
    1.76170   595.3274m 
    1.76180   595.3274m 
    1.76190   595.3274m 
    1.76200   595.3274m 
    1.76210   595.3274m 
    1.76220   595.3274m 
    1.76230   595.3274m 
    1.76240   595.3274m 
    1.76250   595.3274m 
    1.76260   595.3274m 
    1.76270   595.3274m 
    1.76280   595.3274m 
    1.76290   595.3274m 
    1.76300   595.3274m 
    1.76310   595.3274m 
    1.76320   595.3274m 
    1.76330   595.3274m 
    1.76340   595.3274m 
    1.76350   595.3274m 
    1.76360   595.3274m 
    1.76370   595.3274m 
    1.76380   595.3274m 
    1.76390   595.3274m 
    1.76400   595.3274m 
    1.76410   595.3274m 
    1.76420   595.3274m 
    1.76430   595.3274m 
    1.76440   595.3274m 
    1.76450   595.3274m 
    1.76460   595.3274m 
    1.76470   595.3274m 
    1.76480   595.3274m 
    1.76490   595.3274m 
    1.76500   595.3274m 
    1.76510   595.3274m 
    1.76520   595.3274m 
    1.76530   595.3274m 
    1.76540   595.3274m 
    1.76550   595.3274m 
    1.76560   595.3274m 
    1.76570   595.3274m 
    1.76580   595.3274m 
    1.76590   595.3274m 
    1.76600   595.3274m 
    1.76610   595.3274m 
    1.76620   595.3274m 
    1.76630   595.3274m 
    1.76640   595.3274m 
    1.76650   595.3274m 
    1.76660   595.3274m 
    1.76670   595.3274m 
    1.76680   595.3274m 
    1.76690   595.3274m 
    1.76700   595.3274m 
    1.76710   595.3274m 
    1.76720   595.3274m 
    1.76730   595.3274m 
    1.76740   595.3274m 
    1.76750   595.3274m 
    1.76760   595.3274m 
    1.76770   595.3274m 
    1.76780   595.3274m 
    1.76790   595.3274m 
    1.76800   595.3274m 
    1.76810   595.3274m 
    1.76820   595.3274m 
    1.76830   595.3274m 
    1.76840   595.3274m 
    1.76850   595.3274m 
    1.76860   595.3274m 
    1.76870   595.3274m 
    1.76880   595.3274m 
    1.76890   595.3274m 
    1.76900   595.3274m 
    1.76910   595.3274m 
    1.76920   595.3274m 
    1.76930   595.3274m 
    1.76940   595.3274m 
    1.76950   595.3274m 
    1.76960   595.3274m 
    1.76970   595.3274m 
    1.76980   595.3274m 
    1.76990   595.3274m 
    1.77000   595.3274m 
    1.77010   595.3274m 
    1.77020   595.3274m 
    1.77030   595.3274m 
    1.77040   595.3274m 
    1.77050   595.3274m 
    1.77060   595.3274m 
    1.77070   595.3274m 
    1.77080   595.3274m 
    1.77090   595.3274m 
    1.77100   595.3274m 
    1.77110   595.3274m 
    1.77120   595.3274m 
    1.77130   595.3274m 
    1.77140   595.3274m 
    1.77150   595.3274m 
    1.77160   595.3274m 
    1.77170   595.3274m 
    1.77180   595.3274m 
    1.77190   595.3274m 
    1.77200   595.3274m 
    1.77210   595.3274m 
    1.77220   595.3274m 
    1.77230   595.3274m 
    1.77240   595.3274m 
    1.77250   595.3274m 
    1.77260   595.3274m 
    1.77270   595.3274m 
    1.77280   595.3274m 
    1.77290   595.3274m 
    1.77300   595.3274m 
    1.77310   595.3274m 
    1.77320   595.3274m 
    1.77330   595.3274m 
    1.77340   595.3274m 
    1.77350   595.3274m 
    1.77360   595.3274m 
    1.77370   595.3274m 
    1.77380   595.3274m 
    1.77390   595.3274m 
    1.77400   595.3274m 
    1.77410   595.3274m 
    1.77420   595.3274m 
    1.77430   595.3274m 
    1.77440   595.3274m 
    1.77450   595.3274m 
    1.77460   595.3274m 
    1.77470   595.3274m 
    1.77480   595.3274m 
    1.77490   595.3274m 
    1.77500   595.3274m 
    1.77510   595.3274m 
    1.77520   595.3274m 
    1.77530   595.3274m 
    1.77540   595.3274m 
    1.77550   595.3274m 
    1.77560   595.3274m 
    1.77570   595.3274m 
    1.77580   595.3274m 
    1.77590   595.3274m 
    1.77600   595.3274m 
    1.77610   595.3274m 
    1.77620   595.3274m 
    1.77630   595.3274m 
    1.77640   595.3274m 
    1.77650   595.3274m 
    1.77660   595.3274m 
    1.77670   595.3274m 
    1.77680   595.3274m 
    1.77690   595.3274m 
    1.77700   595.3274m 
    1.77710   595.3274m 
    1.77720   595.3274m 
    1.77730   595.3274m 
    1.77740   595.3274m 
    1.77750   595.3274m 
    1.77760   595.3274m 
    1.77770   595.3274m 
    1.77780   595.3274m 
    1.77790   595.3274m 
    1.77800   595.3274m 
    1.77810   595.3274m 
    1.77820   595.3274m 
    1.77830   595.3274m 
    1.77840   595.3274m 
    1.77850   595.3274m 
    1.77860   595.3274m 
    1.77870   595.3274m 
    1.77880   595.3274m 
    1.77890   595.3274m 
    1.77900   595.3274m 
    1.77910   595.3274m 
    1.77920   595.3274m 
    1.77930   595.3274m 
    1.77940   595.3274m 
    1.77950   595.3274m 
    1.77960   595.3274m 
    1.77970   595.3274m 
    1.77980   595.3274m 
    1.77990   595.3274m 
    1.78000   595.3274m 
    1.78010   595.3274m 
    1.78020   595.3274m 
    1.78030   595.3274m 
    1.78040   595.3274m 
    1.78050   595.3274m 
    1.78060   595.3274m 
    1.78070   595.3274m 
    1.78080   595.3274m 
    1.78090   595.3274m 
    1.78100   595.3274m 
    1.78110   595.3274m 
    1.78120   595.3274m 
    1.78130   595.3274m 
    1.78140   595.3274m 
    1.78150   595.3274m 
    1.78160   595.3274m 
    1.78170   595.3274m 
    1.78180   595.3274m 
    1.78190   595.3274m 
    1.78200   595.3274m 
    1.78210   595.3274m 
    1.78220   595.3274m 
    1.78230   595.3274m 
    1.78240   595.3274m 
    1.78250   595.3274m 
    1.78260   595.3274m 
    1.78270   595.3274m 
    1.78280   595.3274m 
    1.78290   595.3274m 
    1.78300   595.3274m 
    1.78310   595.3274m 
    1.78320   595.3274m 
    1.78330   595.3274m 
    1.78340   595.3274m 
    1.78350   595.3274m 
    1.78360   595.3274m 
    1.78370   595.3274m 
    1.78380   595.3274m 
    1.78390   595.3274m 
    1.78400   595.3274m 
    1.78410   595.3274m 
    1.78420   595.3274m 
    1.78430   595.3274m 
    1.78440   595.3274m 
    1.78450   595.3274m 
    1.78460   595.3274m 
    1.78470   595.3274m 
    1.78480   595.3274m 
    1.78490   595.3274m 
    1.78500   595.3274m 
    1.78510   595.3274m 
    1.78520   595.3274m 
    1.78530   595.3274m 
    1.78540   595.3274m 
    1.78550   595.3274m 
    1.78560   595.3274m 
    1.78570   595.3274m 
    1.78580   595.3274m 
    1.78590   595.3274m 
    1.78600   595.3274m 
    1.78610   595.3274m 
    1.78620   595.3274m 
    1.78630   595.3274m 
    1.78640   595.3274m 
    1.78650   595.3274m 
    1.78660   595.3274m 
    1.78670   595.3274m 
    1.78680   595.3274m 
    1.78690   595.3274m 
    1.78700   595.3274m 
    1.78710   595.3274m 
    1.78720   595.3274m 
    1.78730   595.3274m 
    1.78740   595.3274m 
    1.78750   595.3274m 
    1.78760   595.3274m 
    1.78770   595.3274m 
    1.78780   595.3274m 
    1.78790   595.3274m 
    1.78800   595.3274m 
    1.78810   595.3274m 
    1.78820   595.3274m 
    1.78830   595.3274m 
    1.78840   595.3274m 
    1.78850   595.3274m 
    1.78860   595.3274m 
    1.78870   595.3274m 
    1.78880   595.3274m 
    1.78890   595.3274m 
    1.78900   595.3274m 
    1.78910   595.3274m 
    1.78920   595.3274m 
    1.78930   595.3274m 
    1.78940   595.3274m 
    1.78950   595.3274m 
    1.78960   595.3274m 
    1.78970   595.3274m 
    1.78980   595.3274m 
    1.78990   595.3274m 
    1.79000   595.3274m 
    1.79010   595.3274m 
    1.79020   595.3274m 
    1.79030   595.3274m 
    1.79040   595.3274m 
    1.79050   595.3274m 
    1.79060   595.3274m 
    1.79070   595.3274m 
    1.79080   595.3274m 
    1.79090   595.3274m 
    1.79100   595.3274m 
    1.79110   595.3274m 
    1.79120   595.3274m 
    1.79130   595.3274m 
    1.79140   595.3274m 
    1.79150   595.3274m 
    1.79160   595.3274m 
    1.79170   595.3274m 
    1.79180   595.3274m 
    1.79190   595.3274m 
    1.79200   595.3274m 
    1.79210   595.3274m 
    1.79220   595.3274m 
    1.79230   595.3274m 
    1.79240   595.3274m 
    1.79250   595.3274m 
    1.79260   595.3274m 
    1.79270   595.3274m 
    1.79280   595.3274m 
    1.79290   595.3274m 
    1.79300   595.3274m 
    1.79310   595.3274m 
    1.79320   595.3274m 
    1.79330   595.3274m 
    1.79340   595.3274m 
    1.79350   595.3274m 
    1.79360   595.3274m 
    1.79370   595.3274m 
    1.79380   595.3274m 
    1.79390   595.3274m 
    1.79400   595.3274m 
    1.79410   595.3274m 
    1.79420   595.3274m 
    1.79430   595.3274m 
    1.79440   595.3274m 
    1.79450   595.3274m 
    1.79460   595.3274m 
    1.79470   595.3274m 
    1.79480   595.3274m 
    1.79490   595.3274m 
    1.79500   595.3274m 
    1.79510   595.3274m 
    1.79520   595.3274m 
    1.79530   595.3274m 
    1.79540   595.3274m 
    1.79550   595.3274m 
    1.79560   595.3274m 
    1.79570   595.3274m 
    1.79580   595.3274m 
    1.79590   595.3274m 
    1.79600   595.3274m 
    1.79610   595.3274m 
    1.79620   595.3274m 
    1.79630   595.3274m 
    1.79640   595.3274m 
    1.79650   595.3274m 
    1.79660   595.3274m 
    1.79670   595.3274m 
    1.79680   595.3274m 
    1.79690   595.3274m 
    1.79700   595.3274m 
    1.79710   595.3274m 
    1.79720   595.3274m 
    1.79730   595.3274m 
    1.79740   595.3274m 
    1.79750   595.3274m 
    1.79760   595.3274m 
    1.79770   595.3274m 
    1.79780   595.3274m 
    1.79790   595.3274m 
    1.79800   595.3274m 
    1.79810   595.3274m 
    1.79820   595.3274m 
    1.79830   595.3274m 
    1.79840   595.3274m 
    1.79850   595.3274m 
    1.79860   595.3274m 
    1.79870   595.3274m 
    1.79880   595.3274m 
    1.79890   595.3274m 
    1.79900   595.3274m 
    1.79910   595.3274m 
    1.79920   595.3274m 
    1.79930   595.3274m 
    1.79940   595.3274m 
    1.79950   595.3274m 
    1.79960   595.3274m 
    1.79970   595.3274m 
    1.79980   595.3274m 
    1.79990   595.3274m 
    1.80000   595.3274m 
y

          ***** job concluded
1****** HSPICE -- O-2018.09-SP2 win64 (Feb 25 2019) ******                      
 ******  
 

 ****** job statistics summary tnom=  25.000 temp=  25.000 ******

  ******  HSPICE Threads Information  ******

  Command Line Threads Count :     1
  Available CPU Count        :     8
  Actual Threads Count       :     1


  ******  Circuit Statistics  ******
  # nodes       =      51 # elements   =      22
  # resistors   =       0 # capacitors =       1 # inductors   =       0
  # mutual_inds =       0 # vccs       =       0 # vcvs        =       0
  # cccs        =       0 # ccvs       =       0 # volt_srcs   =       2
  # curr_srcs   =       1 # diodes     =       0 # bjts        =       0
  # jfets       =       0 # mosfets    =      18 # U elements  =       0
  # T elements  =       0 # W elements =       0 # B elements  =       0
  # S elements  =       0 # P elements =       0 # va device   =       0
  # vector_srcs =       0 # N elements =       0


  ******  Runtime Statistics (seconds)  ******

  analysis           time    # points   tot. iter  conv.iter
  op point           0.00           1           0
  dc sweep           1.31       18001       36239
  readin             0.04
  errchk             0.01
  setup              0.00
  output             0.00


           peak memory used         64.41 megabytes
           total cpu time            1.41 seconds
           total elapsed time        1.44 seconds
           job started at     10:25:13 12/03/2021
           job ended   at     10:25:15 12/03/2021


  lic: Release hspice token(s) 
 lic: total license checkout elapse time:        0.02(s)
