 ****** HSPICE -- O-2018.09-SP2 win64 (Feb 25 2019) ******                      
  Copyright (c) 1986 - 2021 by Synopsys, Inc. All Rights Reserved.              
  This software and the associated documentation are proprietary
  to Synopsys, Inc. This software may only be used in accordance
  with the terms and conditions of a written license agreement with
  Synopsys, Inc. All other use, reproduction, or distribution of
  this software is strictly prohibited.
  Input File: m1_sample.sp                                                      
  Command line options: C:\synopsys\Hspice_O-2018.09-SP2\WIN64\hspice.com -i m1_sample.sp -o C:\mdsy\proj1\m1_sample.lis
  Start time: Tue Nov 16 17:58:58 2021
  lic:  
  lic: FLEXlm: SDK_11.7.3 
  lic: USER:   admin                HOSTNAME: DESKTOP-3KO7170 
  lic: HOSTID: "d83bbfb49802"       PID:      36076 
  lic: Using FLEXlm license file: 
  lic: 27000@DESKTOP-3KO7170 
  lic: Checkout 1 hspice 
  lic: License/Maintenance for hspice will expire on 30-dec-2029/2019.2019 
  lic: 1(in_use)/99(total) FLOATING license(s) on SERVER 27000@DESKTOP-3KO7170 
  lic:   
 

  
      

Element variations(Local):   element              parameter
 *****************************************************************
 ******  option summary
 ******
 runlvl  = 3         bypass  = 2.0000    
 ******
 * .param vdd = 1 vgs = 1 ln = 0.05u lp = 0.05u wn = 1u wp = 0.5u

 ****** dc transfer curves tnom=  25.000 temp=  25.000 ******
x

 volt         param     
             m1_vth     
    0.        510.8293m 
    1.00000m  510.8293m 
    2.00000m  510.8293m 
    3.00000m  510.8293m 
    4.00000m  510.8292m 
    5.00000m  510.8292m 
    6.00000m  510.8292m 
    7.00000m  510.8292m 
    8.00000m  510.8292m 
    9.00000m  510.8291m 
   10.00000m  510.8291m 
   11.00000m  510.8291m 
   12.00000m  510.8291m 
   13.00000m  510.8291m 
   14.00000m  510.8291m 
   15.00000m  510.8290m 
   16.00000m  510.8290m 
   17.00000m  510.8290m 
   18.00000m  510.8290m 
   19.00000m  510.8290m 
   20.00000m  510.8289m 
   21.00000m  510.8289m 
   22.00000m  510.8289m 
   23.00000m  510.8289m 
   24.00000m  510.8289m 
   25.00000m  510.8288m 
   26.00000m  510.8288m 
   27.00000m  510.8288m 
   28.00000m  510.8288m 
   29.00000m  510.8288m 
   30.00000m  510.8287m 
   31.00000m  510.8287m 
   32.00000m  510.8287m 
   33.00000m  510.8287m 
   34.00000m  510.8287m 
   35.00000m  510.8286m 
   36.00000m  510.8286m 
   37.00000m  510.8286m 
   38.00000m  510.8286m 
   39.00000m  510.8286m 
   40.00000m  510.8285m 
   41.00000m  510.8285m 
   42.00000m  510.8285m 
   43.00000m  510.8285m 
   44.00000m  510.8285m 
   45.00000m  510.8284m 
   46.00000m  510.8284m 
   47.00000m  510.8284m 
   48.00000m  510.8284m 
   49.00000m  510.8284m 
   50.00000m  510.8283m 
   51.00000m  510.8283m 
   52.00000m  510.8283m 
   53.00000m  510.8283m 
   54.00000m  510.8283m 
   55.00000m  510.8282m 
   56.00000m  510.8282m 
   57.00000m  510.8282m 
   58.00000m  510.8282m 
   59.00000m  510.8282m 
   60.00000m  510.8281m 
   61.00000m  510.8281m 
   62.00000m  510.8281m 
   63.00000m  510.8281m 
   64.00000m  510.8281m 
   65.00000m  510.8280m 
   66.00000m  510.8280m 
   67.00000m  510.8280m 
   68.00000m  510.8280m 
   69.00000m  510.8280m 
   70.00000m  510.8279m 
   71.00000m  510.8279m 
   72.00000m  510.8279m 
   73.00000m  510.8279m 
   74.00000m  510.8278m 
   75.00000m  510.8278m 
   76.00000m  510.8278m 
   77.00000m  510.8278m 
   78.00000m  510.8278m 
   79.00000m  510.8277m 
   80.00000m  510.8277m 
   81.00000m  510.8277m 
   82.00000m  510.8277m 
   83.00000m  510.8277m 
   84.00000m  510.8276m 
   85.00000m  510.8276m 
   86.00000m  510.8276m 
   87.00000m  510.8276m 
   88.00000m  510.8276m 
   89.00000m  510.8275m 
   90.00000m  510.8275m 
   91.00000m  510.8275m 
   92.00000m  510.8275m 
   93.00000m  510.8275m 
   94.00000m  510.8274m 
   95.00000m  510.8274m 
   96.00000m  510.8274m 
   97.00000m  510.8274m 
   98.00000m  510.8273m 
   99.00000m  510.8273m 
  100.00000m  510.8273m 
  101.00000m  510.8273m 
  102.00000m  510.8273m 
  103.00000m  510.8272m 
  104.00000m  510.8272m 
  105.00000m  510.8272m 
  106.00000m  510.8272m 
  107.00000m  510.8272m 
  108.00000m  510.8271m 
  109.00000m  510.8271m 
  110.00000m  510.8271m 
  111.00000m  510.8271m 
  112.00000m  510.8270m 
  113.00000m  510.8270m 
  114.00000m  510.8270m 
  115.00000m  510.8270m 
  116.00000m  510.8270m 
  117.00000m  510.8269m 
  118.00000m  510.8269m 
  119.00000m  510.8269m 
  120.00000m  510.8269m 
  121.00000m  510.8269m 
  122.00000m  510.8268m 
  123.00000m  510.8268m 
  124.00000m  510.8268m 
  125.00000m  510.8268m 
  126.00000m  510.8267m 
  127.00000m  510.8267m 
  128.00000m  510.8267m 
  129.00000m  510.8267m 
  130.00000m  510.8267m 
  131.00000m  510.8266m 
  132.00000m  510.8266m 
  133.00000m  510.8266m 
  134.00000m  510.8266m 
  135.00000m  510.8266m 
  136.00000m  510.8265m 
  137.00000m  510.8265m 
  138.00000m  510.8265m 
  139.00000m  510.8265m 
  140.00000m  510.8264m 
  141.00000m  510.8264m 
  142.00000m  510.8264m 
  143.00000m  510.8264m 
  144.00000m  510.8264m 
  145.00000m  510.8263m 
  146.00000m  510.8263m 
  147.00000m  510.8263m 
  148.00000m  510.8263m 
  149.00000m  510.8262m 
  150.00000m  510.8262m 
  151.00000m  510.8262m 
  152.00000m  510.8262m 
  153.00000m  510.8262m 
  154.00000m  510.8261m 
  155.00000m  510.8261m 
  156.00000m  510.8261m 
  157.00000m  510.8261m 
  158.00000m  510.8260m 
  159.00000m  510.8260m 
  160.00000m  510.8260m 
  161.00000m  510.8260m 
  162.00000m  510.8260m 
  163.00000m  510.8259m 
  164.00000m  510.8259m 
  165.00000m  510.8259m 
  166.00000m  510.8259m 
  167.00000m  510.8258m 
  168.00000m  510.8258m 
  169.00000m  510.8258m 
  170.00000m  510.8258m 
  171.00000m  510.8258m 
  172.00000m  510.8257m 
  173.00000m  510.8257m 
  174.00000m  510.8257m 
  175.00000m  510.8257m 
  176.00000m  510.8256m 
  177.00000m  510.8256m 
  178.00000m  510.8256m 
  179.00000m  510.8256m 
  180.00000m  510.8255m 
  181.00000m  510.8255m 
  182.00000m  510.8255m 
  183.00000m  510.8255m 
  184.00000m  510.8255m 
  185.00000m  510.8254m 
  186.00000m  510.8254m 
  187.00000m  510.8254m 
  188.00000m  510.8254m 
  189.00000m  510.8253m 
  190.00000m  510.8253m 
  191.00000m  510.8253m 
  192.00000m  510.8253m 
  193.00000m  510.8253m 
  194.00000m  510.8252m 
  195.00000m  510.8252m 
  196.00000m  510.8252m 
  197.00000m  510.8252m 
  198.00000m  510.8251m 
  199.00000m  510.8251m 
  200.00000m  510.8251m 
  201.00000m  510.8251m 
  202.00000m  510.8250m 
  203.00000m  510.8250m 
  204.00000m  510.8250m 
  205.00000m  510.8250m 
  206.00000m  510.8249m 
  207.00000m  510.8249m 
  208.00000m  510.8249m 
  209.00000m  510.8249m 
  210.00000m  510.8249m 
  211.00000m  510.8248m 
  212.00000m  510.8248m 
  213.00000m  510.8248m 
  214.00000m  510.8248m 
  215.00000m  510.8247m 
  216.00000m  510.8247m 
  217.00000m  510.8247m 
  218.00000m  510.8247m 
  219.00000m  510.8246m 
  220.00000m  510.8246m 
  221.00000m  510.8246m 
  222.00000m  510.8246m 
  223.00000m  510.8245m 
  224.00000m  510.8245m 
  225.00000m  510.8245m 
  226.00000m  510.8245m 
  227.00000m  510.8245m 
  228.00000m  510.8244m 
  229.00000m  510.8244m 
  230.00000m  510.8244m 
  231.00000m  510.8244m 
  232.00000m  510.8243m 
  233.00000m  510.8243m 
  234.00000m  510.8243m 
  235.00000m  510.8243m 
  236.00000m  510.8242m 
  237.00000m  510.8242m 
  238.00000m  510.8242m 
  239.00000m  510.8242m 
  240.00000m  510.8241m 
  241.00000m  510.8241m 
  242.00000m  510.8241m 
  243.00000m  510.8241m 
  244.00000m  510.8240m 
  245.00000m  510.8240m 
  246.00000m  510.8240m 
  247.00000m  510.8240m 
  248.00000m  510.8240m 
  249.00000m  510.8239m 
  250.00000m  510.8239m 
  251.00000m  510.8239m 
  252.00000m  510.8239m 
  253.00000m  510.8238m 
  254.00000m  510.8238m 
  255.00000m  510.8238m 
  256.00000m  510.8238m 
  257.00000m  510.8237m 
  258.00000m  510.8237m 
  259.00000m  510.8237m 
  260.00000m  510.8237m 
  261.00000m  510.8236m 
  262.00000m  510.8236m 
  263.00000m  510.8236m 
  264.00000m  510.8236m 
  265.00000m  510.8235m 
  266.00000m  510.8235m 
  267.00000m  510.8235m 
  268.00000m  510.8235m 
  269.00000m  510.8234m 
  270.00000m  510.8234m 
  271.00000m  510.8234m 
  272.00000m  510.8234m 
  273.00000m  510.8233m 
  274.00000m  510.8233m 
  275.00000m  510.8233m 
  276.00000m  510.8233m 
  277.00000m  510.8232m 
  278.00000m  510.8232m 
  279.00000m  510.8232m 
  280.00000m  510.8232m 
  281.00000m  510.8231m 
  282.00000m  510.8231m 
  283.00000m  510.8231m 
  284.00000m  510.8231m 
  285.00000m  510.8230m 
  286.00000m  510.8230m 
  287.00000m  510.8230m 
  288.00000m  510.8230m 
  289.00000m  510.8229m 
  290.00000m  510.8229m 
  291.00000m  510.8229m 
  292.00000m  510.8229m 
  293.00000m  510.8228m 
  294.00000m  510.8228m 
  295.00000m  510.8228m 
  296.00000m  510.8228m 
  297.00000m  510.8227m 
  298.00000m  510.8227m 
  299.00000m  510.8227m 
  300.00000m  510.8227m 
  301.00000m  510.8226m 
  302.00000m  510.8226m 
  303.00000m  510.8226m 
  304.00000m  510.8226m 
  305.00000m  510.8225m 
  306.00000m  510.8225m 
  307.00000m  510.8225m 
  308.00000m  510.8225m 
  309.00000m  510.8224m 
  310.00000m  510.8224m 
  311.00000m  510.8224m 
  312.00000m  510.8224m 
  313.00000m  510.8223m 
  314.00000m  510.8223m 
  315.00000m  510.8223m 
  316.00000m  510.8223m 
  317.00000m  510.8222m 
  318.00000m  510.8222m 
  319.00000m  510.8222m 
  320.00000m  510.8221m 
  321.00000m  510.8221m 
  322.00000m  510.8221m 
  323.00000m  510.8221m 
  324.00000m  510.8220m 
  325.00000m  510.8220m 
  326.00000m  510.8220m 
  327.00000m  510.8220m 
  328.00000m  510.8219m 
  329.00000m  510.8219m 
  330.00000m  510.8219m 
  331.00000m  510.8219m 
  332.00000m  510.8218m 
  333.00000m  510.8218m 
  334.00000m  510.8218m 
  335.00000m  510.8218m 
  336.00000m  510.8217m 
  337.00000m  510.8217m 
  338.00000m  510.8217m 
  339.00000m  510.8217m 
  340.00000m  510.8216m 
  341.00000m  510.8216m 
  342.00000m  510.8216m 
  343.00000m  510.8215m 
  344.00000m  510.8215m 
  345.00000m  510.8215m 
  346.00000m  510.8215m 
  347.00000m  510.8214m 
  348.00000m  510.8214m 
  349.00000m  510.8214m 
  350.00000m  510.8214m 
  351.00000m  510.8213m 
  352.00000m  510.8213m 
  353.00000m  510.8213m 
  354.00000m  510.8213m 
  355.00000m  510.8212m 
  356.00000m  510.8212m 
  357.00000m  510.8212m 
  358.00000m  510.8211m 
  359.00000m  510.8211m 
  360.00000m  510.8211m 
  361.00000m  510.8211m 
  362.00000m  510.8210m 
  363.00000m  510.8210m 
  364.00000m  510.8210m 
  365.00000m  510.8210m 
  366.00000m  510.8209m 
  367.00000m  510.8209m 
  368.00000m  510.8209m 
  369.00000m  510.8209m 
  370.00000m  510.8208m 
  371.00000m  510.8208m 
  372.00000m  510.8208m 
  373.00000m  510.8207m 
  374.00000m  510.8207m 
  375.00000m  510.8207m 
  376.00000m  510.8207m 
  377.00000m  510.8206m 
  378.00000m  510.8206m 
  379.00000m  510.8206m 
  380.00000m  510.8206m 
  381.00000m  510.8205m 
  382.00000m  510.8205m 
  383.00000m  510.8205m 
  384.00000m  510.8204m 
  385.00000m  510.8204m 
  386.00000m  510.8204m 
  387.00000m  510.8204m 
  388.00000m  510.8203m 
  389.00000m  510.8203m 
  390.00000m  510.8203m 
  391.00000m  510.8203m 
  392.00000m  510.8202m 
  393.00000m  510.8202m 
  394.00000m  510.8202m 
  395.00000m  510.8201m 
  396.00000m  510.8201m 
  397.00000m  510.8201m 
  398.00000m  510.8201m 
  399.00000m  510.8200m 
  400.00000m  510.8200m 
  401.00000m  510.8200m 
  402.00000m  510.8200m 
  403.00000m  510.8199m 
  404.00000m  510.8199m 
  405.00000m  510.8199m 
  406.00000m  510.8198m 
  407.00000m  510.8198m 
  408.00000m  510.8198m 
  409.00000m  510.8198m 
  410.00000m  510.8197m 
  411.00000m  510.8197m 
  412.00000m  510.8197m 
  413.00000m  510.8196m 
  414.00000m  510.8196m 
  415.00000m  510.8196m 
  416.00000m  510.8196m 
  417.00000m  510.8195m 
  418.00000m  510.8195m 
  419.00000m  510.8195m 
  420.00000m  510.8194m 
  421.00000m  510.8194m 
  422.00000m  510.8194m 
  423.00000m  510.8194m 
  424.00000m  510.8193m 
  425.00000m  510.8193m 
  426.00000m  510.8193m 
  427.00000m  510.8192m 
  428.00000m  510.8192m 
  429.00000m  510.8192m 
  430.00000m  510.8192m 
  431.00000m  510.8191m 
  432.00000m  510.8191m 
  433.00000m  510.8191m 
  434.00000m  510.8190m 
  435.00000m  510.8190m 
  436.00000m  510.8190m 
  437.00000m  510.8190m 
  438.00000m  510.8189m 
  439.00000m  510.8189m 
  440.00000m  510.8189m 
  441.00000m  510.8188m 
  442.00000m  510.8188m 
  443.00000m  510.8188m 
  444.00000m  510.8188m 
  445.00000m  510.8187m 
  446.00000m  510.8187m 
  447.00000m  510.8187m 
  448.00000m  510.8186m 
  449.00000m  510.8186m 
  450.00000m  510.8186m 
  451.00000m  510.8186m 
  452.00000m  510.8185m 
  453.00000m  510.8185m 
  454.00000m  510.8185m 
  455.00000m  510.8184m 
  456.00000m  510.8184m 
  457.00000m  510.8184m 
  458.00000m  510.8184m 
  459.00000m  510.8183m 
  460.00000m  510.8183m 
  461.00000m  510.8183m 
  462.00000m  510.8182m 
  463.00000m  510.8182m 
  464.00000m  510.8182m 
  465.00000m  510.8182m 
  466.00000m  510.8181m 
  467.00000m  510.8181m 
  468.00000m  510.8181m 
  469.00000m  510.8180m 
  470.00000m  510.8180m 
  471.00000m  510.8180m 
  472.00000m  510.8179m 
  473.00000m  510.8179m 
  474.00000m  510.8179m 
  475.00000m  510.8179m 
  476.00000m  510.8178m 
  477.00000m  510.8178m 
  478.00000m  510.8178m 
  479.00000m  510.8177m 
  480.00000m  510.8177m 
  481.00000m  510.8177m 
  482.00000m  510.8176m 
  483.00000m  510.8176m 
  484.00000m  510.8176m 
  485.00000m  510.8176m 
  486.00000m  510.8175m 
  487.00000m  510.8175m 
  488.00000m  510.8175m 
  489.00000m  510.8174m 
  490.00000m  510.8174m 
  491.00000m  510.8174m 
  492.00000m  510.8173m 
  493.00000m  510.8173m 
  494.00000m  510.8173m 
  495.00000m  510.8173m 
  496.00000m  510.8172m 
  497.00000m  510.8172m 
  498.00000m  510.8172m 
  499.00000m  510.8171m 
  500.00000m  510.8171m 
  501.00000m  510.8171m 
  502.00000m  510.8170m 
  503.00000m  510.8170m 
  504.00000m  510.8170m 
  505.00000m  510.8170m 
  506.00000m  510.8169m 
  507.00000m  510.8169m 
  508.00000m  510.8169m 
  509.00000m  510.8168m 
  510.00000m  510.8168m 
  511.00000m  510.8168m 
  512.00000m  510.8167m 
  513.00000m  510.8167m 
  514.00000m  510.8167m 
  515.00000m  510.8167m 
  516.00000m  510.8166m 
  517.00000m  510.8166m 
  518.00000m  510.8166m 
  519.00000m  510.8165m 
  520.00000m  510.8165m 
  521.00000m  510.8165m 
  522.00000m  510.8164m 
  523.00000m  510.8164m 
  524.00000m  510.8164m 
  525.00000m  510.8163m 
  526.00000m  510.8163m 
  527.00000m  510.8163m 
  528.00000m  510.8163m 
  529.00000m  510.8162m 
  530.00000m  510.8162m 
  531.00000m  510.8162m 
  532.00000m  510.8161m 
  533.00000m  510.8161m 
  534.00000m  510.8161m 
  535.00000m  510.8160m 
  536.00000m  510.8160m 
  537.00000m  510.8160m 
  538.00000m  510.8159m 
  539.00000m  510.8159m 
  540.00000m  510.8159m 
  541.00000m  510.8158m 
  542.00000m  510.8158m 
  543.00000m  510.8158m 
  544.00000m  510.8158m 
  545.00000m  510.8157m 
  546.00000m  510.8157m 
  547.00000m  510.8157m 
  548.00000m  510.8156m 
  549.00000m  510.8156m 
  550.00000m  510.8156m 
  551.00000m  510.8155m 
  552.00000m  510.8155m 
  553.00000m  510.8155m 
  554.00000m  510.8154m 
  555.00000m  510.8154m 
  556.00000m  510.8154m 
  557.00000m  510.8153m 
  558.00000m  510.8153m 
  559.00000m  510.8153m 
  560.00000m  510.8152m 
  561.00000m  510.8152m 
  562.00000m  510.8152m 
  563.00000m  510.8152m 
  564.00000m  510.8151m 
  565.00000m  510.8151m 
  566.00000m  510.8151m 
  567.00000m  510.8150m 
  568.00000m  510.8150m 
  569.00000m  510.8150m 
  570.00000m  510.8149m 
  571.00000m  510.8149m 
  572.00000m  510.8149m 
  573.00000m  510.8148m 
  574.00000m  510.8148m 
  575.00000m  510.8148m 
  576.00000m  510.8147m 
  577.00000m  510.8147m 
  578.00000m  510.8147m 
  579.00000m  510.8146m 
  580.00000m  510.8146m 
  581.00000m  510.8146m 
  582.00000m  510.8145m 
  583.00000m  510.8145m 
  584.00000m  510.8145m 
  585.00000m  510.8144m 
  586.00000m  510.8144m 
  587.00000m  510.8144m 
  588.00000m  510.8143m 
  589.00000m  510.8143m 
  590.00000m  510.8143m 
  591.00000m  510.8142m 
  592.00000m  510.8142m 
  593.00000m  510.8142m 
  594.00000m  510.8142m 
  595.00000m  510.8141m 
  596.00000m  510.8141m 
  597.00000m  510.8141m 
  598.00000m  510.8140m 
  599.00000m  510.8140m 
  600.00000m  510.8140m 
  601.00000m  510.8139m 
  602.00000m  510.8139m 
  603.00000m  510.8139m 
  604.00000m  510.8138m 
  605.00000m  510.8138m 
  606.00000m  510.8138m 
  607.00000m  510.8137m 
  608.00000m  510.8137m 
  609.00000m  510.8137m 
  610.00000m  510.8136m 
  611.00000m  510.8136m 
  612.00000m  510.8136m 
  613.00000m  510.8135m 
  614.00000m  510.8135m 
  615.00000m  510.8135m 
  616.00000m  510.8134m 
  617.00000m  510.8134m 
  618.00000m  510.8134m 
  619.00000m  510.8133m 
  620.00000m  510.8133m 
  621.00000m  510.8133m 
  622.00000m  510.8132m 
  623.00000m  510.8132m 
  624.00000m  510.8132m 
  625.00000m  510.8131m 
  626.00000m  510.8131m 
  627.00000m  510.8131m 
  628.00000m  510.8130m 
  629.00000m  510.8130m 
  630.00000m  510.8130m 
  631.00000m  510.8129m 
  632.00000m  510.8129m 
  633.00000m  510.8129m 
  634.00000m  510.8128m 
  635.00000m  510.8128m 
  636.00000m  510.8128m 
  637.00000m  510.8127m 
  638.00000m  510.8127m 
  639.00000m  510.8127m 
  640.00000m  510.8126m 
  641.00000m  510.8126m 
  642.00000m  510.8125m 
  643.00000m  510.8125m 
  644.00000m  510.8125m 
  645.00000m  510.8124m 
  646.00000m  510.8124m 
  647.00000m  510.8124m 
  648.00000m  510.8123m 
  649.00000m  510.8123m 
  650.00000m  510.8123m 
  651.00000m  510.8122m 
  652.00000m  510.8122m 
  653.00000m  510.8122m 
  654.00000m  510.8121m 
  655.00000m  510.8121m 
  656.00000m  510.8121m 
  657.00000m  510.8120m 
  658.00000m  510.8120m 
  659.00000m  510.8120m 
  660.00000m  510.8119m 
  661.00000m  510.8119m 
  662.00000m  510.8119m 
  663.00000m  510.8118m 
  664.00000m  510.8118m 
  665.00000m  510.8118m 
  666.00000m  510.8117m 
  667.00000m  510.8117m 
  668.00000m  510.8117m 
  669.00000m  510.8116m 
  670.00000m  510.8116m 
  671.00000m  510.8116m 
  672.00000m  510.8115m 
  673.00000m  510.8115m 
  674.00000m  510.8114m 
  675.00000m  510.8114m 
  676.00000m  510.8114m 
  677.00000m  510.8113m 
  678.00000m  510.8113m 
  679.00000m  510.8113m 
  680.00000m  510.8112m 
  681.00000m  510.8112m 
  682.00000m  510.8112m 
  683.00000m  510.8111m 
  684.00000m  510.8111m 
  685.00000m  510.8111m 
  686.00000m  510.8110m 
  687.00000m  510.8110m 
  688.00000m  510.8110m 
  689.00000m  510.8109m 
  690.00000m  510.8109m 
  691.00000m  510.8108m 
  692.00000m  510.8108m 
  693.00000m  510.8108m 
  694.00000m  510.8107m 
  695.00000m  510.8107m 
  696.00000m  510.8107m 
  697.00000m  510.8106m 
  698.00000m  510.8106m 
  699.00000m  510.8106m 
  700.00000m  510.8105m 
  701.00000m  510.8105m 
  702.00000m  510.8105m 
  703.00000m  510.8104m 
  704.00000m  510.8104m 
  705.00000m  510.8104m 
  706.00000m  510.8103m 
  707.00000m  510.8103m 
  708.00000m  510.8102m 
  709.00000m  510.8102m 
  710.00000m  510.8102m 
  711.00000m  510.8101m 
  712.00000m  510.8101m 
  713.00000m  510.8101m 
  714.00000m  510.8100m 
  715.00000m  510.8100m 
  716.00000m  510.8100m 
  717.00000m  510.8099m 
  718.00000m  510.8099m 
  719.00000m  510.8098m 
  720.00000m  510.8098m 
  721.00000m  510.8098m 
  722.00000m  510.8097m 
  723.00000m  510.8097m 
  724.00000m  510.8097m 
  725.00000m  510.8096m 
  726.00000m  510.8096m 
  727.00000m  510.8096m 
  728.00000m  510.8095m 
  729.00000m  510.8095m 
  730.00000m  510.8094m 
  731.00000m  510.8094m 
  732.00000m  510.8094m 
  733.00000m  510.8093m 
  734.00000m  510.8093m 
  735.00000m  510.8093m 
  736.00000m  510.8092m 
  737.00000m  510.8092m 
  738.00000m  510.8092m 
  739.00000m  510.8091m 
  740.00000m  510.8091m 
  741.00000m  510.8090m 
  742.00000m  510.8090m 
  743.00000m  510.8090m 
  744.00000m  510.8089m 
  745.00000m  510.8089m 
  746.00000m  510.8089m 
  747.00000m  510.8088m 
  748.00000m  510.8088m 
  749.00000m  510.8087m 
  750.00000m  510.8087m 
  751.00000m  510.8087m 
  752.00000m  510.8086m 
  753.00000m  510.8086m 
  754.00000m  510.8086m 
  755.00000m  510.8085m 
  756.00000m  510.8085m 
  757.00000m  510.8085m 
  758.00000m  510.8084m 
  759.00000m  510.8084m 
  760.00000m  510.8083m 
  761.00000m  510.8083m 
  762.00000m  510.8083m 
  763.00000m  510.8082m 
  764.00000m  510.8082m 
  765.00000m  510.8082m 
  766.00000m  510.8081m 
  767.00000m  510.8081m 
  768.00000m  510.8080m 
  769.00000m  510.8080m 
  770.00000m  510.8080m 
  771.00000m  510.8079m 
  772.00000m  510.8079m 
  773.00000m  510.8079m 
  774.00000m  510.8078m 
  775.00000m  510.8078m 
  776.00000m  510.8077m 
  777.00000m  510.8077m 
  778.00000m  510.8077m 
  779.00000m  510.8076m 
  780.00000m  510.8076m 
  781.00000m  510.8076m 
  782.00000m  510.8075m 
  783.00000m  510.8075m 
  784.00000m  510.8074m 
  785.00000m  510.8074m 
  786.00000m  510.8074m 
  787.00000m  510.8073m 
  788.00000m  510.8073m 
  789.00000m  510.8072m 
  790.00000m  510.8072m 
  791.00000m  510.8072m 
  792.00000m  510.8071m 
  793.00000m  510.8071m 
  794.00000m  510.8071m 
  795.00000m  510.8070m 
  796.00000m  510.8070m 
  797.00000m  510.8069m 
  798.00000m  510.8069m 
  799.00000m  510.8069m 
  800.00000m  510.8068m 
  801.00000m  510.8068m 
  802.00000m  510.8067m 
  803.00000m  510.8067m 
  804.00000m  510.8067m 
  805.00000m  510.8066m 
  806.00000m  510.8066m 
  807.00000m  510.8066m 
  808.00000m  510.8065m 
  809.00000m  510.8065m 
  810.00000m  510.8064m 
  811.00000m  510.8064m 
  812.00000m  510.8064m 
  813.00000m  510.8063m 
  814.00000m  510.8063m 
  815.00000m  510.8062m 
  816.00000m  510.8062m 
  817.00000m  510.8062m 
  818.00000m  510.8061m 
  819.00000m  510.8061m 
  820.00000m  510.8061m 
  821.00000m  510.8060m 
  822.00000m  510.8060m 
  823.00000m  510.8059m 
  824.00000m  510.8059m 
  825.00000m  510.8059m 
  826.00000m  510.8058m 
  827.00000m  510.8058m 
  828.00000m  510.8057m 
  829.00000m  510.8057m 
  830.00000m  510.8057m 
  831.00000m  510.8056m 
  832.00000m  510.8056m 
  833.00000m  510.8055m 
  834.00000m  510.8055m 
  835.00000m  510.8055m 
  836.00000m  510.8054m 
  837.00000m  510.8054m 
  838.00000m  510.8053m 
  839.00000m  510.8053m 
  840.00000m  510.8053m 
  841.00000m  510.8052m 
  842.00000m  510.8052m 
  843.00000m  510.8051m 
  844.00000m  510.8051m 
  845.00000m  510.8051m 
  846.00000m  510.8050m 
  847.00000m  510.8050m 
  848.00000m  510.8050m 
  849.00000m  510.8049m 
  850.00000m  510.8049m 
  851.00000m  510.8048m 
  852.00000m  510.8048m 
  853.00000m  510.8048m 
  854.00000m  510.8047m 
  855.00000m  510.8047m 
  856.00000m  510.8046m 
  857.00000m  510.8046m 
  858.00000m  510.8046m 
  859.00000m  510.8045m 
  860.00000m  510.8045m 
  861.00000m  510.8044m 
  862.00000m  510.8044m 
  863.00000m  510.8044m 
  864.00000m  510.8043m 
  865.00000m  510.8043m 
  866.00000m  510.8042m 
  867.00000m  510.8042m 
  868.00000m  510.8042m 
  869.00000m  510.8041m 
  870.00000m  510.8041m 
  871.00000m  510.8040m 
  872.00000m  510.8040m 
  873.00000m  510.8040m 
  874.00000m  510.8039m 
  875.00000m  510.8039m 
  876.00000m  510.8038m 
  877.00000m  510.8038m 
  878.00000m  510.8037m 
  879.00000m  510.8037m 
  880.00000m  510.8037m 
  881.00000m  510.8036m 
  882.00000m  510.8036m 
  883.00000m  510.8035m 
  884.00000m  510.8035m 
  885.00000m  510.8035m 
  886.00000m  510.8034m 
  887.00000m  510.8034m 
  888.00000m  510.8033m 
  889.00000m  510.8033m 
  890.00000m  510.8033m 
  891.00000m  510.8032m 
  892.00000m  510.8032m 
  893.00000m  510.8031m 
  894.00000m  510.8031m 
  895.00000m  510.8031m 
  896.00000m  510.8030m 
  897.00000m  510.8030m 
  898.00000m  510.8029m 
  899.00000m  510.8029m 
  900.00000m  510.8029m 
  901.00000m  510.8028m 
  902.00000m  510.8028m 
  903.00000m  510.8027m 
  904.00000m  510.8027m 
  905.00000m  510.8026m 
  906.00000m  510.8026m 
  907.00000m  510.8026m 
  908.00000m  510.8025m 
  909.00000m  510.8025m 
  910.00000m  510.8024m 
  911.00000m  510.8024m 
  912.00000m  510.8024m 
  913.00000m  510.8023m 
  914.00000m  510.8023m 
  915.00000m  510.8022m 
  916.00000m  510.8022m 
  917.00000m  510.8022m 
  918.00000m  510.8021m 
  919.00000m  510.8021m 
  920.00000m  510.8020m 
  921.00000m  510.8020m 
  922.00000m  510.8019m 
  923.00000m  510.8019m 
  924.00000m  510.8019m 
  925.00000m  510.8018m 
  926.00000m  510.8018m 
  927.00000m  510.8017m 
  928.00000m  510.8017m 
  929.00000m  510.8017m 
  930.00000m  510.8016m 
  931.00000m  510.8016m 
  932.00000m  510.8015m 
  933.00000m  510.8015m 
  934.00000m  510.8014m 
  935.00000m  510.8014m 
  936.00000m  510.8014m 
  937.00000m  510.8013m 
  938.00000m  510.8013m 
  939.00000m  510.8012m 
  940.00000m  510.8012m 
  941.00000m  510.8012m 
  942.00000m  510.8011m 
  943.00000m  510.8011m 
  944.00000m  510.8010m 
  945.00000m  510.8010m 
  946.00000m  510.8009m 
  947.00000m  510.8009m 
  948.00000m  510.8009m 
  949.00000m  510.8008m 
  950.00000m  510.8008m 
  951.00000m  510.8007m 
  952.00000m  510.8007m 
  953.00000m  510.8007m 
  954.00000m  510.8006m 
  955.00000m  510.8006m 
  956.00000m  510.8005m 
  957.00000m  510.8005m 
  958.00000m  510.8004m 
  959.00000m  510.8004m 
  960.00000m  510.8004m 
  961.00000m  510.8003m 
  962.00000m  510.8003m 
  963.00000m  510.8002m 
  964.00000m  510.8002m 
  965.00000m  510.8001m 
  966.00000m  510.8001m 
  967.00000m  510.8001m 
  968.00000m  510.8000m 
  969.00000m  510.8000m 
  970.00000m  510.7999m 
  971.00000m  510.7999m 
  972.00000m  510.7998m 
  973.00000m  510.7998m 
  974.00000m  510.7998m 
  975.00000m  510.7997m 
  976.00000m  510.7997m 
  977.00000m  510.7996m 
  978.00000m  510.7996m 
  979.00000m  510.7996m 
  980.00000m  510.7995m 
  981.00000m  510.7995m 
  982.00000m  510.7994m 
  983.00000m  510.7994m 
  984.00000m  510.7993m 
  985.00000m  510.7993m 
  986.00000m  510.7993m 
  987.00000m  510.7992m 
  988.00000m  510.7992m 
  989.00000m  510.7991m 
  990.00000m  510.7991m 
  991.00000m  510.7990m 
  992.00000m  510.7990m 
  993.00000m  510.7990m 
  994.00000m  510.7989m 
  995.00000m  510.7989m 
  996.00000m  510.7988m 
  997.00000m  510.7988m 
  998.00000m  510.7988m 
  999.00000m  510.7987m 
    1.00000   510.7987m 
    1.00100   510.7986m 
    1.00200   510.7986m 
    1.00300   510.7985m 
    1.00400   510.7985m 
    1.00500   510.7985m 
    1.00600   510.7984m 
    1.00700   510.7984m 
    1.00800   510.7983m 
    1.00900   510.7983m 
    1.01000   510.7982m 
    1.01100   510.7982m 
    1.01200   510.7982m 
    1.01300   510.7981m 
    1.01400   510.7981m 
    1.01500   510.7980m 
    1.01600   510.7980m 
    1.01700   510.7979m 
    1.01800   510.7979m 
    1.01900   510.7979m 
    1.02000   510.7978m 
    1.02100   510.7978m 
    1.02200   510.7977m 
    1.02300   510.7977m 
    1.02400   510.7977m 
    1.02500   510.7976m 
    1.02600   510.7976m 
    1.02700   510.7975m 
    1.02800   510.7975m 
    1.02900   510.7974m 
    1.03000   510.7974m 
    1.03100   510.7974m 
    1.03200   510.7973m 
    1.03300   510.7973m 
    1.03400   510.7972m 
    1.03500   510.7972m 
    1.03600   510.7971m 
    1.03700   510.7971m 
    1.03800   510.7971m 
    1.03900   510.7970m 
    1.04000   510.7970m 
    1.04100   510.7969m 
    1.04200   510.7969m 
    1.04300   510.7969m 
    1.04400   510.7968m 
    1.04500   510.7968m 
    1.04600   510.7967m 
    1.04700   510.7967m 
    1.04800   510.7966m 
    1.04900   510.7966m 
    1.05000   510.7966m 
    1.05100   510.7965m 
    1.05200   510.7965m 
    1.05300   510.7964m 
    1.05400   510.7964m 
    1.05500   510.7964m 
    1.05600   510.7963m 
    1.05700   510.7963m 
    1.05800   510.7962m 
    1.05900   510.7962m 
    1.06000   510.7962m 
    1.06100   510.7961m 
    1.06200   510.7961m 
    1.06300   510.7960m 
    1.06400   510.7960m 
    1.06500   510.7959m 
    1.06600   510.7959m 
    1.06700   510.7959m 
    1.06800   510.7958m 
    1.06900   510.7958m 
    1.07000   510.7957m 
    1.07100   510.7957m 
    1.07200   510.7957m 
    1.07300   510.7956m 
    1.07400   510.7956m 
    1.07500   510.7955m 
    1.07600   510.7955m 
    1.07700   510.7955m 
    1.07800   510.7954m 
    1.07900   510.7954m 
    1.08000   510.7953m 
    1.08100   510.7953m 
    1.08200   510.7953m 
    1.08300   510.7952m 
    1.08400   510.7952m 
    1.08500   510.7951m 
    1.08600   510.7951m 
    1.08700   510.7951m 
    1.08800   510.7950m 
    1.08900   510.7950m 
    1.09000   510.7949m 
    1.09100   510.7949m 
    1.09200   510.7949m 
    1.09300   510.7948m 
    1.09400   510.7948m 
    1.09500   510.7948m 
    1.09600   510.7947m 
    1.09700   510.7947m 
    1.09800   510.7946m 
    1.09900   510.7946m 
    1.10000   510.7946m 
    1.10100   510.7945m 
    1.10200   510.7945m 
    1.10300   510.7944m 
    1.10400   510.7944m 
    1.10500   510.7944m 
    1.10600   510.7943m 
    1.10700   510.7943m 
    1.10800   510.7943m 
    1.10900   510.7942m 
    1.11000   510.7942m 
    1.11100   510.7941m 
    1.11200   510.7941m 
    1.11300   510.7941m 
    1.11400   510.7940m 
    1.11500   510.7940m 
    1.11600   510.7940m 
    1.11700   510.7939m 
    1.11800   510.7939m 
    1.11900   510.7939m 
    1.12000   510.7938m 
    1.12100   510.7938m 
    1.12200   510.7937m 
    1.12300   510.7937m 
    1.12400   510.7937m 
    1.12500   510.7936m 
    1.12600   510.7936m 
    1.12700   510.7936m 
    1.12800   510.7935m 
    1.12900   510.7935m 
    1.13000   510.7935m 
    1.13100   510.7934m 
    1.13200   510.7934m 
    1.13300   510.7934m 
    1.13400   510.7933m 
    1.13500   510.7933m 
    1.13600   510.7933m 
    1.13700   510.7932m 
    1.13800   510.7932m 
    1.13900   510.7932m 
    1.14000   510.7931m 
    1.14100   510.7931m 
    1.14200   510.7931m 
    1.14300   510.7930m 
    1.14400   510.7930m 
    1.14500   510.7930m 
    1.14600   510.7929m 
    1.14700   510.7929m 
    1.14800   510.7929m 
    1.14900   510.7928m 
    1.15000   510.7928m 
    1.15100   510.7928m 
    1.15200   510.7927m 
    1.15300   510.7927m 
    1.15400   510.7927m 
    1.15500   510.7926m 
    1.15600   510.7926m 
    1.15700   510.7926m 
    1.15800   510.7925m 
    1.15900   510.7925m 
    1.16000   510.7925m 
    1.16100   510.7925m 
    1.16200   510.7924m 
    1.16300   510.7924m 
    1.16400   510.7924m 
    1.16500   510.7923m 
    1.16600   510.7923m 
    1.16700   510.7923m 
    1.16800   510.7923m 
    1.16900   510.7922m 
    1.17000   510.7922m 
    1.17100   510.7922m 
    1.17200   510.7921m 
    1.17300   510.7921m 
    1.17400   510.7921m 
    1.17500   510.7921m 
    1.17600   510.7920m 
    1.17700   510.7920m 
    1.17800   510.7920m 
    1.17900   510.7919m 
    1.18000   510.7919m 
    1.18100   510.7919m 
    1.18200   510.7919m 
    1.18300   510.7918m 
    1.18400   510.7918m 
    1.18500   510.7918m 
    1.18600   510.7918m 
    1.18700   510.7917m 
    1.18800   510.7917m 
    1.18900   510.7917m 
    1.19000   510.7917m 
    1.19100   510.7916m 
    1.19200   510.7916m 
    1.19300   510.7916m 
    1.19400   510.7916m 
    1.19500   510.7915m 
    1.19600   510.7915m 
    1.19700   510.7915m 
    1.19800   510.7915m 
    1.19900   510.7914m 
    1.20000   510.7914m 
    1.20100   510.7914m 
    1.20200   510.7914m 
    1.20300   510.7913m 
    1.20400   510.7913m 
    1.20500   510.7913m 
    1.20600   510.7913m 
    1.20700   510.7913m 
    1.20800   510.7912m 
    1.20900   510.7912m 
    1.21000   510.7912m 
    1.21100   510.7912m 
    1.21200   510.7911m 
    1.21300   510.7911m 
    1.21400   510.7911m 
    1.21500   510.7911m 
    1.21600   510.7911m 
    1.21700   510.7910m 
    1.21800   510.7910m 
    1.21900   510.7910m 
    1.22000   510.7910m 
    1.22100   510.7910m 
    1.22200   510.7909m 
    1.22300   510.7909m 
    1.22400   510.7909m 
    1.22500   510.7909m 
    1.22600   510.7909m 
    1.22700   510.7909m 
    1.22800   510.7908m 
    1.22900   510.7908m 
    1.23000   510.7908m 
    1.23100   510.7908m 
    1.23200   510.7908m 
    1.23300   510.7907m 
    1.23400   510.7907m 
    1.23500   510.7907m 
    1.23600   510.7907m 
    1.23700   510.7907m 
    1.23800   510.7907m 
    1.23900   510.7907m 
    1.24000   510.7906m 
    1.24100   510.7906m 
    1.24200   510.7906m 
    1.24300   510.7906m 
    1.24400   510.7906m 
    1.24500   510.7906m 
    1.24600   510.7905m 
    1.24700   510.7905m 
    1.24800   510.7905m 
    1.24900   510.7905m 
    1.25000   510.7905m 
    1.25100   510.7905m 
    1.25200   510.7905m 
    1.25300   510.7904m 
    1.25400   510.7904m 
    1.25500   510.7904m 
    1.25600   510.7904m 
    1.25700   510.7904m 
    1.25800   510.7904m 
    1.25900   510.7904m 
    1.26000   510.7904m 
    1.26100   510.7903m 
    1.26200   510.7903m 
    1.26300   510.7903m 
    1.26400   510.7903m 
    1.26500   510.7903m 
    1.26600   510.7903m 
    1.26700   510.7903m 
    1.26800   510.7903m 
    1.26900   510.7902m 
    1.27000   510.7902m 
    1.27100   510.7902m 
    1.27200   510.7902m 
    1.27300   510.7902m 
    1.27400   510.7902m 
    1.27500   510.7902m 
    1.27600   510.7902m 
    1.27700   510.7902m 
    1.27800   510.7902m 
    1.27900   510.7901m 
    1.28000   510.7901m 
    1.28100   510.7901m 
    1.28200   510.7901m 
    1.28300   510.7901m 
    1.28400   510.7901m 
    1.28500   510.7901m 
    1.28600   510.7901m 
    1.28700   510.7901m 
    1.28800   510.7901m 
    1.28900   510.7901m 
    1.29000   510.7900m 
    1.29100   510.7900m 
    1.29200   510.7900m 
    1.29300   510.7900m 
    1.29400   510.7900m 
    1.29500   510.7900m 
    1.29600   510.7900m 
    1.29700   510.7900m 
    1.29800   510.7900m 
    1.29900   510.7900m 
    1.30000   510.7900m 
    1.30100   510.7900m 
    1.30200   510.7900m 
    1.30300   510.7900m 
    1.30400   510.7899m 
    1.30500   510.7899m 
    1.30600   510.7899m 
    1.30700   510.7899m 
    1.30800   510.7899m 
    1.30900   510.7899m 
    1.31000   510.7899m 
    1.31100   510.7899m 
    1.31200   510.7899m 
    1.31300   510.7899m 
    1.31400   510.7899m 
    1.31500   510.7899m 
    1.31600   510.7899m 
    1.31700   510.7899m 
    1.31800   510.7899m 
    1.31900   510.7899m 
    1.32000   510.7899m 
    1.32100   510.7899m 
    1.32200   510.7898m 
    1.32300   510.7898m 
    1.32400   510.7898m 
    1.32500   510.7898m 
    1.32600   510.7898m 
    1.32700   510.7898m 
    1.32800   510.7898m 
    1.32900   510.7898m 
    1.33000   510.7898m 
    1.33100   510.7898m 
    1.33200   510.7898m 
    1.33300   510.7898m 
    1.33400   510.7898m 
    1.33500   510.7898m 
    1.33600   510.7898m 
    1.33700   510.7898m 
    1.33800   510.7898m 
    1.33900   510.7898m 
    1.34000   510.7898m 
    1.34100   510.7898m 
    1.34200   510.7898m 
    1.34300   510.7898m 
    1.34400   510.7898m 
    1.34500   510.7898m 
    1.34600   510.7898m 
    1.34700   510.7898m 
    1.34800   510.7898m 
    1.34900   510.7898m 
    1.35000   510.7897m 
    1.35100   510.7897m 
    1.35200   510.7897m 
    1.35300   510.7897m 
    1.35400   510.7897m 
    1.35500   510.7897m 
    1.35600   510.7897m 
    1.35700   510.7897m 
    1.35800   510.7897m 
    1.35900   510.7897m 
    1.36000   510.7897m 
    1.36100   510.7897m 
    1.36200   510.7897m 
    1.36300   510.7897m 
    1.36400   510.7897m 
    1.36500   510.7897m 
    1.36600   510.7897m 
    1.36700   510.7897m 
    1.36800   510.7897m 
    1.36900   510.7897m 
    1.37000   510.7897m 
    1.37100   510.7897m 
    1.37200   510.7897m 
    1.37300   510.7897m 
    1.37400   510.7897m 
    1.37500   510.7897m 
    1.37600   510.7897m 
    1.37700   510.7897m 
    1.37800   510.7897m 
    1.37900   510.7897m 
    1.38000   510.7897m 
    1.38100   510.7897m 
    1.38200   510.7897m 
    1.38300   510.7897m 
    1.38400   510.7897m 
    1.38500   510.7897m 
    1.38600   510.7897m 
    1.38700   510.7897m 
    1.38800   510.7897m 
    1.38900   510.7897m 
    1.39000   510.7897m 
    1.39100   510.7897m 
    1.39200   510.7897m 
    1.39300   510.7897m 
    1.39400   510.7897m 
    1.39500   510.7897m 
    1.39600   510.7897m 
    1.39700   510.7897m 
    1.39800   510.7897m 
    1.39900   510.7897m 
    1.40000   510.7897m 
    1.40100   510.7897m 
    1.40200   510.7897m 
    1.40300   510.7897m 
    1.40400   510.7897m 
    1.40500   510.7897m 
    1.40600   510.7897m 
    1.40700   510.7897m 
    1.40800   510.7897m 
    1.40900   510.7897m 
    1.41000   510.7897m 
    1.41100   510.7897m 
    1.41200   510.7897m 
    1.41300   510.7897m 
    1.41400   510.7897m 
    1.41500   510.7896m 
    1.41600   510.7896m 
    1.41700   510.7896m 
    1.41800   510.7896m 
    1.41900   510.7896m 
    1.42000   510.7896m 
    1.42100   510.7896m 
    1.42200   510.7896m 
    1.42300   510.7896m 
    1.42400   510.7896m 
    1.42500   510.7896m 
    1.42600   510.7896m 
    1.42700   510.7896m 
    1.42800   510.7896m 
    1.42900   510.7896m 
    1.43000   510.7896m 
    1.43100   510.7896m 
    1.43200   510.7896m 
    1.43300   510.7896m 
    1.43400   510.7896m 
    1.43500   510.7896m 
    1.43600   510.7896m 
    1.43700   510.7896m 
    1.43800   510.7896m 
    1.43900   510.7896m 
    1.44000   510.7896m 
    1.44100   510.7896m 
    1.44200   510.7896m 
    1.44300   510.7896m 
    1.44400   510.7896m 
    1.44500   510.7896m 
    1.44600   510.7896m 
    1.44700   510.7896m 
    1.44800   510.7896m 
    1.44900   510.7896m 
    1.45000   510.7896m 
    1.45100   510.7896m 
    1.45200   510.7896m 
    1.45300   510.7896m 
    1.45400   510.7896m 
    1.45500   510.7896m 
    1.45600   510.7896m 
    1.45700   510.7896m 
    1.45800   510.7896m 
    1.45900   510.7896m 
    1.46000   510.7896m 
    1.46100   510.7896m 
    1.46200   510.7896m 
    1.46300   510.7896m 
    1.46400   510.7896m 
    1.46500   510.7896m 
    1.46600   510.7896m 
    1.46700   510.7896m 
    1.46800   510.7896m 
    1.46900   510.7896m 
    1.47000   510.7896m 
    1.47100   510.7896m 
    1.47200   510.7896m 
    1.47300   510.7896m 
    1.47400   510.7896m 
    1.47500   510.7896m 
    1.47600   510.7896m 
    1.47700   510.7896m 
    1.47800   510.7896m 
    1.47900   510.7896m 
    1.48000   510.7896m 
    1.48100   510.7896m 
    1.48200   510.7896m 
    1.48300   510.7896m 
    1.48400   510.7896m 
    1.48500   510.7896m 
    1.48600   510.7896m 
    1.48700   510.7896m 
    1.48800   510.7896m 
    1.48900   510.7896m 
    1.49000   510.7896m 
    1.49100   510.7896m 
    1.49200   510.7896m 
    1.49300   510.7896m 
    1.49400   510.7896m 
    1.49500   510.7896m 
    1.49600   510.7896m 
    1.49700   510.7896m 
    1.49800   510.7896m 
    1.49900   510.7896m 
    1.50000   510.7896m 
    1.50100   510.7896m 
    1.50200   510.7896m 
    1.50300   510.7896m 
    1.50400   510.7896m 
    1.50500   510.7896m 
    1.50600   510.7896m 
    1.50700   510.7896m 
    1.50800   510.7896m 
    1.50900   510.7896m 
    1.51000   510.7896m 
    1.51100   510.7896m 
    1.51200   510.7896m 
    1.51300   510.7896m 
    1.51400   510.7896m 
    1.51500   510.7896m 
    1.51600   510.7896m 
    1.51700   510.7896m 
    1.51800   510.7896m 
    1.51900   510.7896m 
    1.52000   510.7896m 
    1.52100   510.7896m 
    1.52200   510.7896m 
    1.52300   510.7896m 
    1.52400   510.7896m 
    1.52500   510.7896m 
    1.52600   510.7896m 
    1.52700   510.7896m 
    1.52800   510.7896m 
    1.52900   510.7896m 
    1.53000   510.7896m 
    1.53100   510.7896m 
    1.53200   510.7896m 
    1.53300   510.7896m 
    1.53400   510.7896m 
    1.53500   510.7896m 
    1.53600   510.7896m 
    1.53700   510.7896m 
    1.53800   510.7896m 
    1.53900   510.7896m 
    1.54000   510.7896m 
    1.54100   510.7896m 
    1.54200   510.7896m 
    1.54300   510.7896m 
    1.54400   510.7896m 
    1.54500   510.7896m 
    1.54600   510.7896m 
    1.54700   510.7896m 
    1.54800   510.7896m 
    1.54900   510.7896m 
    1.55000   510.7896m 
    1.55100   510.7896m 
    1.55200   510.7896m 
    1.55300   510.7896m 
    1.55400   510.7896m 
    1.55500   510.7896m 
    1.55600   510.7896m 
    1.55700   510.7896m 
    1.55800   510.7896m 
    1.55900   510.7896m 
    1.56000   510.7896m 
    1.56100   510.7896m 
    1.56200   510.7896m 
    1.56300   510.7896m 
    1.56400   510.7896m 
    1.56500   510.7896m 
    1.56600   510.7896m 
    1.56700   510.7896m 
    1.56800   510.7896m 
    1.56900   510.7896m 
    1.57000   510.7896m 
    1.57100   510.7896m 
    1.57200   510.7896m 
    1.57300   510.7896m 
    1.57400   510.7896m 
    1.57500   510.7896m 
    1.57600   510.7896m 
    1.57700   510.7896m 
    1.57800   510.7896m 
    1.57900   510.7896m 
    1.58000   510.7896m 
    1.58100   510.7896m 
    1.58200   510.7896m 
    1.58300   510.7896m 
    1.58400   510.7896m 
    1.58500   510.7896m 
    1.58600   510.7896m 
    1.58700   510.7896m 
    1.58800   510.7896m 
    1.58900   510.7896m 
    1.59000   510.7896m 
    1.59100   510.7896m 
    1.59200   510.7896m 
    1.59300   510.7896m 
    1.59400   510.7896m 
    1.59500   510.7896m 
    1.59600   510.7896m 
    1.59700   510.7896m 
    1.59800   510.7896m 
    1.59900   510.7896m 
    1.60000   510.7896m 
    1.60100   510.7896m 
    1.60200   510.7896m 
    1.60300   510.7896m 
    1.60400   510.7896m 
    1.60500   510.7896m 
    1.60600   510.7896m 
    1.60700   510.7896m 
    1.60800   510.7896m 
    1.60900   510.7896m 
    1.61000   510.7896m 
    1.61100   510.7896m 
    1.61200   510.7896m 
    1.61300   510.7896m 
    1.61400   510.7896m 
    1.61500   510.7896m 
    1.61600   510.7896m 
    1.61700   510.7896m 
    1.61800   510.7896m 
    1.61900   510.7896m 
    1.62000   510.7896m 
    1.62100   510.7896m 
    1.62200   510.7896m 
    1.62300   510.7896m 
    1.62400   510.7896m 
    1.62500   510.7896m 
    1.62600   510.7896m 
    1.62700   510.7896m 
    1.62800   510.7896m 
    1.62900   510.7896m 
    1.63000   510.7896m 
    1.63100   510.7896m 
    1.63200   510.7896m 
    1.63300   510.7896m 
    1.63400   510.7896m 
    1.63500   510.7896m 
    1.63600   510.7896m 
    1.63700   510.7896m 
    1.63800   510.7896m 
    1.63900   510.7896m 
    1.64000   510.7896m 
    1.64100   510.7896m 
    1.64200   510.7896m 
    1.64300   510.7896m 
    1.64400   510.7896m 
    1.64500   510.7896m 
    1.64600   510.7896m 
    1.64700   510.7896m 
    1.64800   510.7896m 
    1.64900   510.7896m 
    1.65000   510.7896m 
    1.65100   510.7896m 
    1.65200   510.7896m 
    1.65300   510.7896m 
    1.65400   510.7896m 
    1.65500   510.7896m 
    1.65600   510.7896m 
    1.65700   510.7896m 
    1.65800   510.7896m 
    1.65900   510.7896m 
    1.66000   510.7896m 
    1.66100   510.7896m 
    1.66200   510.7896m 
    1.66300   510.7896m 
    1.66400   510.7896m 
    1.66500   510.7896m 
    1.66600   510.7896m 
    1.66700   510.7896m 
    1.66800   510.7896m 
    1.66900   510.7896m 
    1.67000   510.7896m 
    1.67100   510.7896m 
    1.67200   510.7896m 
    1.67300   510.7896m 
    1.67400   510.7896m 
    1.67500   510.7896m 
    1.67600   510.7896m 
    1.67700   510.7896m 
    1.67800   510.7896m 
    1.67900   510.7896m 
    1.68000   510.7896m 
    1.68100   510.7896m 
    1.68200   510.7896m 
    1.68300   510.7896m 
    1.68400   510.7896m 
    1.68500   510.7896m 
    1.68600   510.7896m 
    1.68700   510.7896m 
    1.68800   510.7896m 
    1.68900   510.7896m 
    1.69000   510.7896m 
    1.69100   510.7896m 
    1.69200   510.7896m 
    1.69300   510.7896m 
    1.69400   510.7896m 
    1.69500   510.7896m 
    1.69600   510.7896m 
    1.69700   510.7896m 
    1.69800   510.7896m 
    1.69900   510.7896m 
    1.70000   510.7896m 
    1.70100   510.7896m 
    1.70200   510.7896m 
    1.70300   510.7896m 
    1.70400   510.7896m 
    1.70500   510.7896m 
    1.70600   510.7896m 
    1.70700   510.7896m 
    1.70800   510.7896m 
    1.70900   510.7896m 
    1.71000   510.7896m 
    1.71100   510.7896m 
    1.71200   510.7896m 
    1.71300   510.7896m 
    1.71400   510.7896m 
    1.71500   510.7896m 
    1.71600   510.7896m 
    1.71700   510.7896m 
    1.71800   510.7896m 
    1.71900   510.7896m 
    1.72000   510.7896m 
    1.72100   510.7896m 
    1.72200   510.7896m 
    1.72300   510.7896m 
    1.72400   510.7896m 
    1.72500   510.7896m 
    1.72600   510.7896m 
    1.72700   510.7896m 
    1.72800   510.7896m 
    1.72900   510.7896m 
    1.73000   510.7896m 
    1.73100   510.7896m 
    1.73200   510.7896m 
    1.73300   510.7896m 
    1.73400   510.7896m 
    1.73500   510.7896m 
    1.73600   510.7896m 
    1.73700   510.7896m 
    1.73800   510.7896m 
    1.73900   510.7896m 
    1.74000   510.7896m 
    1.74100   510.7896m 
    1.74200   510.7896m 
    1.74300   510.7896m 
    1.74400   510.7896m 
    1.74500   510.7896m 
    1.74600   510.7896m 
    1.74700   510.7896m 
    1.74800   510.7896m 
    1.74900   510.7896m 
    1.75000   510.7896m 
    1.75100   510.7896m 
    1.75200   510.7896m 
    1.75300   510.7896m 
    1.75400   510.7896m 
    1.75500   510.7896m 
    1.75600   510.7896m 
    1.75700   510.7896m 
    1.75800   510.7896m 
    1.75900   510.7896m 
    1.76000   510.7896m 
    1.76100   510.7896m 
    1.76200   510.7896m 
    1.76300   510.7896m 
    1.76400   510.7896m 
    1.76500   510.7896m 
    1.76600   510.7896m 
    1.76700   510.7896m 
    1.76800   510.7896m 
    1.76900   510.7896m 
    1.77000   510.7896m 
    1.77100   510.7896m 
    1.77200   510.7896m 
    1.77300   510.7896m 
    1.77400   510.7896m 
    1.77500   510.7896m 
    1.77600   510.7896m 
    1.77700   510.7896m 
    1.77800   510.7896m 
    1.77900   510.7896m 
    1.78000   510.7896m 
    1.78100   510.7896m 
    1.78200   510.7896m 
    1.78300   510.7896m 
    1.78400   510.7896m 
    1.78500   510.7896m 
    1.78600   510.7896m 
    1.78700   510.7896m 
    1.78800   510.7896m 
    1.78900   510.7896m 
    1.79000   510.7896m 
    1.79100   510.7896m 
    1.79200   510.7896m 
    1.79300   510.7896m 
    1.79400   510.7896m 
    1.79500   510.7896m 
    1.79600   510.7896m 
    1.79700   510.7896m 
    1.79800   510.7896m 
    1.79900   510.7896m 
    1.80000   510.7896m 
y

          ***** job concluded
1****** HSPICE -- O-2018.09-SP2 win64 (Feb 25 2019) ******                      
 ******  
 * .param vdd = 1 vgs = 1 ln = 0.05u lp = 0.05u wn = 1u wp = 0.5u

 ****** job statistics summary tnom=  25.000 temp=  25.000 ******

  ******  HSPICE Threads Information  ******

  Command Line Threads Count :     1
  Available CPU Count        :     8
  Actual Threads Count       :     1


  ******  Circuit Statistics  ******
  # nodes       =       6 # elements   =       4
  # resistors   =       0 # capacitors =       0 # inductors   =       0
  # mutual_inds =       0 # vccs       =       0 # vcvs        =       0
  # cccs        =       0 # ccvs       =       0 # volt_srcs   =       3
  # curr_srcs   =       0 # diodes     =       0 # bjts        =       0
  # jfets       =       0 # mosfets    =       1 # U elements  =       0
  # T elements  =       0 # W elements =       0 # B elements  =       0
  # S elements  =       0 # P elements =       0 # va device   =       0
  # vector_srcs =       0 # N elements =       0


  ******  Runtime Statistics (seconds)  ******

  analysis           time    # points   tot. iter  conv.iter
  op point           0.00           1           0
  dc sweep           0.11        1801        3604
  readin             0.04
  errchk             0.01
  setup              0.00
  output             0.00


           peak memory used         64.45 megabytes
           total cpu time            0.18 seconds
           total elapsed time        0.23 seconds
           job started at     17:58:58 11/16/2021
           job ended   at     17:58:58 11/16/2021


  lic: Release hspice token(s) 
 lic: total license checkout elapse time:        0.03(s)
