 ****** HSPICE -- O-2018.09-SP2 win64 (Feb 25 2019) ******                      
  Copyright (c) 1986 - 2021 by Synopsys, Inc. All Rights Reserved.              
  This software and the associated documentation are proprietary
  to Synopsys, Inc. This software may only be used in accordance
  with the terms and conditions of a written license agreement with
  Synopsys, Inc. All other use, reproduction, or distribution of
  this software is strictly prohibited.
  Input File: sample_simulate.sp                                                
  Command line options: C:\synopsys\Hspice_O-2018.09-SP2\WIN64\hspice.com -i sample_simulate.sp -o C:\mdsy\proj1\sample_simulate.lis
  Start time: Tue Nov 16 16:12:21 2021
  lic:  
  lic: FLEXlm: SDK_11.7.3 
  lic: USER:   admin                HOSTNAME: DESKTOP-3KO7170 
  lic: HOSTID: "d83bbfb49802"       PID:      9748 
  lic: Using FLEXlm license file: 
  lic: 27000@DESKTOP-3KO7170 
  lic: Checkout 1 hspice 
  lic: License/Maintenance for hspice will expire on 30-dec-2029/2019.2019 
  lic: 1(in_use)/99(total) FLOATING license(s) on SERVER 27000@DESKTOP-3KO7170 
  lic:   
 

  **warning** (sample_simulate.sp:15) Could not find branch element vm1d ;branch output ignored
  
      

Element variations(Local):   element              parameter
 **info** set option symb=1 internally to help for convergence.
 *****************************************************************
 ******  option summary
 ******
 runlvl  = 3         bypass  = 2.0000    

 **warning** zero value is used for the non-existance
             output variable in the expression.
             you may have output variables with
             a long path name.
 ******
 * .param vdd = 1 vgs = 1 ln = 0.05u lp = 0.05u wn = 1u wp = 0.5u

 ****** dc transfer curves tnom=  25.000 temp=  25.000 ******
x

 volt         param     
             m1_vth     
    0.        503.1765m 
    1.00000m  503.1765m 
    2.00000m  503.1765m 
    3.00000m  503.1765m 
    4.00000m  503.1765m 
    5.00000m  503.1765m 
    6.00000m  503.1765m 
    7.00000m  503.1765m 
    8.00000m  503.1765m 
    9.00000m  503.1765m 
   10.00000m  503.1765m 
   11.00000m  503.1765m 
   12.00000m  503.1765m 
   13.00000m  503.1765m 
   14.00000m  503.1765m 
   15.00000m  503.1765m 
   16.00000m  503.1765m 
   17.00000m  503.1765m 
   18.00000m  503.1765m 
   19.00000m  503.1765m 
   20.00000m  503.1765m 
   21.00000m  503.1765m 
   22.00000m  503.1765m 
   23.00000m  503.1765m 
   24.00000m  503.1765m 
   25.00000m  503.1765m 
   26.00000m  503.1765m 
   27.00000m  503.1765m 
   28.00000m  503.1765m 
   29.00000m  503.1765m 
   30.00000m  503.1765m 
   31.00000m  503.1765m 
   32.00000m  503.1765m 
   33.00000m  503.1765m 
   34.00000m  503.1765m 
   35.00000m  503.1765m 
   36.00000m  503.1765m 
   37.00000m  503.1765m 
   38.00000m  503.1765m 
   39.00000m  503.1765m 
   40.00000m  503.1765m 
   41.00000m  503.1765m 
   42.00000m  503.1765m 
   43.00000m  503.1765m 
   44.00000m  503.1765m 
   45.00000m  503.1765m 
   46.00000m  503.1765m 
   47.00000m  503.1765m 
   48.00000m  503.1765m 
   49.00000m  503.1765m 
   50.00000m  503.1765m 
   51.00000m  503.1765m 
   52.00000m  503.1765m 
   53.00000m  503.1765m 
   54.00000m  503.1765m 
   55.00000m  503.1765m 
   56.00000m  503.1765m 
   57.00000m  503.1765m 
   58.00000m  503.1765m 
   59.00000m  503.1765m 
   60.00000m  503.1765m 
   61.00000m  503.1765m 
   62.00000m  503.1765m 
   63.00000m  503.1765m 
   64.00000m  503.1765m 
   65.00000m  503.1765m 
   66.00000m  503.1765m 
   67.00000m  503.1765m 
   68.00000m  503.1765m 
   69.00000m  503.1765m 
   70.00000m  503.1765m 
   71.00000m  503.1765m 
   72.00000m  503.1765m 
   73.00000m  503.1765m 
   74.00000m  503.1765m 
   75.00000m  503.1765m 
   76.00000m  503.1765m 
   77.00000m  503.1765m 
   78.00000m  503.1765m 
   79.00000m  503.1765m 
   80.00000m  503.1765m 
   81.00000m  503.1765m 
   82.00000m  503.1765m 
   83.00000m  503.1765m 
   84.00000m  503.1765m 
   85.00000m  503.1765m 
   86.00000m  503.1765m 
   87.00000m  503.1765m 
   88.00000m  503.1765m 
   89.00000m  503.1765m 
   90.00000m  503.1765m 
   91.00000m  503.1765m 
   92.00000m  503.1765m 
   93.00000m  503.1765m 
   94.00000m  503.1765m 
   95.00000m  503.1765m 
   96.00000m  503.1765m 
   97.00000m  503.1765m 
   98.00000m  503.1765m 
   99.00000m  503.1765m 
  100.00000m  503.1765m 
  101.00000m  503.1765m 
  102.00000m  503.1765m 
  103.00000m  503.1765m 
  104.00000m  503.1765m 
  105.00000m  503.1765m 
  106.00000m  503.1765m 
  107.00000m  503.1765m 
  108.00000m  503.1765m 
  109.00000m  503.1765m 
  110.00000m  503.1765m 
  111.00000m  503.1765m 
  112.00000m  503.1765m 
  113.00000m  503.1765m 
  114.00000m  503.1765m 
  115.00000m  503.1765m 
  116.00000m  503.1765m 
  117.00000m  503.1765m 
  118.00000m  503.1765m 
  119.00000m  503.1765m 
  120.00000m  503.1765m 
  121.00000m  503.1765m 
  122.00000m  503.1765m 
  123.00000m  503.1765m 
  124.00000m  503.1765m 
  125.00000m  503.1765m 
  126.00000m  503.1765m 
  127.00000m  503.1765m 
  128.00000m  503.1765m 
  129.00000m  503.1765m 
  130.00000m  503.1765m 
  131.00000m  503.1765m 
  132.00000m  503.1765m 
  133.00000m  503.1765m 
  134.00000m  503.1765m 
  135.00000m  503.1765m 
  136.00000m  503.1765m 
  137.00000m  503.1765m 
  138.00000m  503.1765m 
  139.00000m  503.1765m 
  140.00000m  503.1765m 
  141.00000m  503.1765m 
  142.00000m  503.1765m 
  143.00000m  503.1765m 
  144.00000m  503.1765m 
  145.00000m  503.1765m 
  146.00000m  503.1765m 
  147.00000m  503.1765m 
  148.00000m  503.1765m 
  149.00000m  503.1765m 
  150.00000m  503.1765m 
  151.00000m  503.1765m 
  152.00000m  503.1765m 
  153.00000m  503.1765m 
  154.00000m  503.1765m 
  155.00000m  503.1765m 
  156.00000m  503.1765m 
  157.00000m  503.1765m 
  158.00000m  503.1765m 
  159.00000m  503.1765m 
  160.00000m  503.1765m 
  161.00000m  503.1765m 
  162.00000m  503.1765m 
  163.00000m  503.1765m 
  164.00000m  503.1765m 
  165.00000m  503.1765m 
  166.00000m  503.1765m 
  167.00000m  503.1765m 
  168.00000m  503.1765m 
  169.00000m  503.1765m 
  170.00000m  503.1765m 
  171.00000m  503.1765m 
  172.00000m  503.1765m 
  173.00000m  503.1765m 
  174.00000m  503.1765m 
  175.00000m  503.1765m 
  176.00000m  503.1765m 
  177.00000m  503.1765m 
  178.00000m  503.1765m 
  179.00000m  503.1765m 
  180.00000m  503.1765m 
  181.00000m  503.1765m 
  182.00000m  503.1765m 
  183.00000m  503.1765m 
  184.00000m  503.1765m 
  185.00000m  503.1765m 
  186.00000m  503.1765m 
  187.00000m  503.1765m 
  188.00000m  503.1765m 
  189.00000m  503.1765m 
  190.00000m  503.1765m 
  191.00000m  503.1765m 
  192.00000m  503.1765m 
  193.00000m  503.1765m 
  194.00000m  503.1765m 
  195.00000m  503.1765m 
  196.00000m  503.1765m 
  197.00000m  503.1765m 
  198.00000m  503.1765m 
  199.00000m  503.1765m 
  200.00000m  503.1765m 
  201.00000m  503.1765m 
  202.00000m  503.1765m 
  203.00000m  503.1765m 
  204.00000m  503.1765m 
  205.00000m  503.1765m 
  206.00000m  503.1765m 
  207.00000m  503.1765m 
  208.00000m  503.1765m 
  209.00000m  503.1765m 
  210.00000m  503.1765m 
  211.00000m  503.1765m 
  212.00000m  503.1765m 
  213.00000m  503.1765m 
  214.00000m  503.1765m 
  215.00000m  503.1765m 
  216.00000m  503.1765m 
  217.00000m  503.1765m 
  218.00000m  503.1765m 
  219.00000m  503.1765m 
  220.00000m  503.1765m 
  221.00000m  503.1765m 
  222.00000m  503.1765m 
  223.00000m  503.1765m 
  224.00000m  503.1765m 
  225.00000m  503.1765m 
  226.00000m  503.1765m 
  227.00000m  503.1765m 
  228.00000m  503.1765m 
  229.00000m  503.1765m 
  230.00000m  503.1765m 
  231.00000m  503.1765m 
  232.00000m  503.1765m 
  233.00000m  503.1765m 
  234.00000m  503.1765m 
  235.00000m  503.1765m 
  236.00000m  503.1765m 
  237.00000m  503.1765m 
  238.00000m  503.1765m 
  239.00000m  503.1765m 
  240.00000m  503.1765m 
  241.00000m  503.1765m 
  242.00000m  503.1765m 
  243.00000m  503.1765m 
  244.00000m  503.1765m 
  245.00000m  503.1765m 
  246.00000m  503.1765m 
  247.00000m  503.1765m 
  248.00000m  503.1765m 
  249.00000m  503.1765m 
  250.00000m  503.1765m 
  251.00000m  503.1765m 
  252.00000m  503.1765m 
  253.00000m  503.1765m 
  254.00000m  503.1765m 
  255.00000m  503.1765m 
  256.00000m  503.1765m 
  257.00000m  503.1765m 
  258.00000m  503.1765m 
  259.00000m  503.1765m 
  260.00000m  503.1765m 
  261.00000m  503.1765m 
  262.00000m  503.1765m 
  263.00000m  503.1765m 
  264.00000m  503.1765m 
  265.00000m  503.1765m 
  266.00000m  503.1765m 
  267.00000m  503.1765m 
  268.00000m  503.1765m 
  269.00000m  503.1765m 
  270.00000m  503.1765m 
  271.00000m  503.1765m 
  272.00000m  503.1765m 
  273.00000m  503.1765m 
  274.00000m  503.1765m 
  275.00000m  503.1765m 
  276.00000m  503.1765m 
  277.00000m  503.1765m 
  278.00000m  503.1765m 
  279.00000m  503.1765m 
  280.00000m  503.1765m 
  281.00000m  503.1765m 
  282.00000m  503.1765m 
  283.00000m  503.1765m 
  284.00000m  503.1765m 
  285.00000m  503.1765m 
  286.00000m  503.1765m 
  287.00000m  503.1765m 
  288.00000m  503.1765m 
  289.00000m  503.1765m 
  290.00000m  503.1765m 
  291.00000m  503.1765m 
  292.00000m  503.1765m 
  293.00000m  503.1765m 
  294.00000m  503.1765m 
  295.00000m  503.1765m 
  296.00000m  503.1765m 
  297.00000m  503.1765m 
  298.00000m  503.1765m 
  299.00000m  503.1765m 
  300.00000m  503.1765m 
  301.00000m  503.1765m 
  302.00000m  503.1765m 
  303.00000m  503.1765m 
  304.00000m  503.1765m 
  305.00000m  503.1765m 
  306.00000m  503.1765m 
  307.00000m  503.1765m 
  308.00000m  503.1765m 
  309.00000m  503.1765m 
  310.00000m  503.1765m 
  311.00000m  503.1765m 
  312.00000m  503.1765m 
  313.00000m  503.1765m 
  314.00000m  503.1765m 
  315.00000m  503.1765m 
  316.00000m  503.1765m 
  317.00000m  503.1765m 
  318.00000m  503.1765m 
  319.00000m  503.1765m 
  320.00000m  503.1765m 
  321.00000m  503.1765m 
  322.00000m  503.1765m 
  323.00000m  503.1765m 
  324.00000m  503.1765m 
  325.00000m  503.1765m 
  326.00000m  503.1765m 
  327.00000m  503.1765m 
  328.00000m  503.1765m 
  329.00000m  503.1765m 
  330.00000m  503.1765m 
  331.00000m  503.1765m 
  332.00000m  503.1765m 
  333.00000m  503.1765m 
  334.00000m  503.1765m 
  335.00000m  503.1765m 
  336.00000m  503.1765m 
  337.00000m  503.1765m 
  338.00000m  503.1765m 
  339.00000m  503.1765m 
  340.00000m  503.1765m 
  341.00000m  503.1765m 
  342.00000m  503.1765m 
  343.00000m  503.1765m 
  344.00000m  503.1765m 
  345.00000m  503.1765m 
  346.00000m  503.1765m 
  347.00000m  503.1765m 
  348.00000m  503.1765m 
  349.00000m  503.1765m 
  350.00000m  503.1765m 
  351.00000m  503.1765m 
  352.00000m  503.1765m 
  353.00000m  503.1765m 
  354.00000m  503.1765m 
  355.00000m  503.1765m 
  356.00000m  503.1765m 
  357.00000m  503.1765m 
  358.00000m  503.1765m 
  359.00000m  503.1765m 
  360.00000m  503.1765m 
  361.00000m  503.1765m 
  362.00000m  503.1765m 
  363.00000m  503.1765m 
  364.00000m  503.1765m 
  365.00000m  503.1765m 
  366.00000m  503.1765m 
  367.00000m  503.1765m 
  368.00000m  503.1765m 
  369.00000m  503.1765m 
  370.00000m  503.1765m 
  371.00000m  503.1765m 
  372.00000m  503.1765m 
  373.00000m  503.1765m 
  374.00000m  503.1765m 
  375.00000m  503.1765m 
  376.00000m  503.1765m 
  377.00000m  503.1765m 
  378.00000m  503.1766m 
  379.00000m  503.1766m 
  380.00000m  503.1766m 
  381.00000m  503.1766m 
  382.00000m  503.1766m 
  383.00000m  503.1766m 
  384.00000m  503.1766m 
  385.00000m  503.1766m 
  386.00000m  503.1766m 
  387.00000m  503.1766m 
  388.00000m  503.1766m 
  389.00000m  503.1766m 
  390.00000m  503.1766m 
  391.00000m  503.1766m 
  392.00000m  503.1766m 
  393.00000m  503.1766m 
  394.00000m  503.1766m 
  395.00000m  503.1766m 
  396.00000m  503.1766m 
  397.00000m  503.1766m 
  398.00000m  503.1766m 
  399.00000m  503.1766m 
  400.00000m  503.1766m 
  401.00000m  503.1766m 
  402.00000m  503.1766m 
  403.00000m  503.1766m 
  404.00000m  503.1766m 
  405.00000m  503.1766m 
  406.00000m  503.1766m 
  407.00000m  503.1766m 
  408.00000m  503.1766m 
  409.00000m  503.1766m 
  410.00000m  503.1766m 
  411.00000m  503.1766m 
  412.00000m  503.1767m 
  413.00000m  503.1767m 
  414.00000m  503.1767m 
  415.00000m  503.1767m 
  416.00000m  503.1767m 
  417.00000m  503.1767m 
  418.00000m  503.1767m 
  419.00000m  503.1767m 
  420.00000m  503.1767m 
  421.00000m  503.1767m 
  422.00000m  503.1767m 
  423.00000m  503.1767m 
  424.00000m  503.1767m 
  425.00000m  503.1767m 
  426.00000m  503.1767m 
  427.00000m  503.1767m 
  428.00000m  503.1767m 
  429.00000m  503.1767m 
  430.00000m  503.1767m 
  431.00000m  503.1767m 
  432.00000m  503.1768m 
  433.00000m  503.1768m 
  434.00000m  503.1768m 
  435.00000m  503.1768m 
  436.00000m  503.1768m 
  437.00000m  503.1768m 
  438.00000m  503.1768m 
  439.00000m  503.1768m 
  440.00000m  503.1768m 
  441.00000m  503.1768m 
  442.00000m  503.1768m 
  443.00000m  503.1768m 
  444.00000m  503.1768m 
  445.00000m  503.1768m 
  446.00000m  503.1769m 
  447.00000m  503.1769m 
  448.00000m  503.1769m 
  449.00000m  503.1769m 
  450.00000m  503.1769m 
  451.00000m  503.1769m 
  452.00000m  503.1769m 
  453.00000m  503.1769m 
  454.00000m  503.1769m 
  455.00000m  503.1769m 
  456.00000m  503.1769m 
  457.00000m  503.1770m 
  458.00000m  503.1770m 
  459.00000m  503.1770m 
  460.00000m  503.1770m 
  461.00000m  503.1770m 
  462.00000m  503.1770m 
  463.00000m  503.1770m 
  464.00000m  503.1770m 
  465.00000m  503.1770m 
  466.00000m  503.1771m 
  467.00000m  503.1771m 
  468.00000m  503.1771m 
  469.00000m  503.1771m 
  470.00000m  503.1771m 
  471.00000m  503.1771m 
  472.00000m  503.1771m 
  473.00000m  503.1771m 
  474.00000m  503.1772m 
  475.00000m  503.1772m 
  476.00000m  503.1772m 
  477.00000m  503.1772m 
  478.00000m  503.1772m 
  479.00000m  503.1772m 
  480.00000m  503.1772m 
  481.00000m  503.1773m 
  482.00000m  503.1773m 
  483.00000m  503.1773m 
  484.00000m  503.1773m 
  485.00000m  503.1773m 
  486.00000m  503.1773m 
  487.00000m  503.1774m 
  488.00000m  503.1774m 
  489.00000m  503.1774m 
  490.00000m  503.1774m 
  491.00000m  503.1774m 
  492.00000m  503.1774m 
  493.00000m  503.1775m 
  494.00000m  503.1775m 
  495.00000m  503.1775m 
  496.00000m  503.1775m 
  497.00000m  503.1775m 
  498.00000m  503.1776m 
  499.00000m  503.1776m 
  500.00000m  503.1776m 
  501.00000m  503.1776m 
  502.00000m  503.1776m 
  503.00000m  503.1777m 
  504.00000m  503.1777m 
  505.00000m  503.1777m 
  506.00000m  503.1777m 
  507.00000m  503.1777m 
  508.00000m  503.1778m 
  509.00000m  503.1778m 
  510.00000m  503.1778m 
  511.00000m  503.1778m 
  512.00000m  503.1779m 
  513.00000m  503.1779m 
  514.00000m  503.1779m 
  515.00000m  503.1779m 
  516.00000m  503.1780m 
  517.00000m  503.1780m 
  518.00000m  503.1780m 
  519.00000m  503.1780m 
  520.00000m  503.1781m 
  521.00000m  503.1781m 
  522.00000m  503.1781m 
  523.00000m  503.1782m 
  524.00000m  503.1782m 
  525.00000m  503.1782m 
  526.00000m  503.1782m 
  527.00000m  503.1783m 
  528.00000m  503.1783m 
  529.00000m  503.1783m 
  530.00000m  503.1784m 
  531.00000m  503.1784m 
  532.00000m  503.1784m 
  533.00000m  503.1785m 
  534.00000m  503.1785m 
  535.00000m  503.1785m 
  536.00000m  503.1786m 
  537.00000m  503.1786m 
  538.00000m  503.1786m 
  539.00000m  503.1787m 
  540.00000m  503.1787m 
  541.00000m  503.1787m 
  542.00000m  503.1788m 
  543.00000m  503.1788m 
  544.00000m  503.1788m 
  545.00000m  503.1789m 
  546.00000m  503.1789m 
  547.00000m  503.1790m 
  548.00000m  503.1790m 
  549.00000m  503.1790m 
  550.00000m  503.1791m 
  551.00000m  503.1791m 
  552.00000m  503.1791m 
  553.00000m  503.1792m 
  554.00000m  503.1792m 
  555.00000m  503.1793m 
  556.00000m  503.1793m 
  557.00000m  503.1794m 
  558.00000m  503.1794m 
  559.00000m  503.1794m 
  560.00000m  503.1795m 
  561.00000m  503.1795m 
  562.00000m  503.1796m 
  563.00000m  503.1796m 
  564.00000m  503.1797m 
  565.00000m  503.1797m 
  566.00000m  503.1798m 
  567.00000m  503.1798m 
  568.00000m  503.1798m 
  569.00000m  503.1799m 
  570.00000m  503.1799m 
  571.00000m  503.1800m 
  572.00000m  503.1800m 
  573.00000m  503.1801m 
  574.00000m  503.1801m 
  575.00000m  503.1802m 
  576.00000m  503.1802m 
  577.00000m  503.1803m 
  578.00000m  503.1803m 
  579.00000m  503.1804m 
  580.00000m  503.1804m 
  581.00000m  503.1805m 
  582.00000m  503.1805m 
  583.00000m  503.1806m 
  584.00000m  503.1806m 
  585.00000m  503.1807m 
  586.00000m  503.1808m 
  587.00000m  503.1808m 
  588.00000m  503.1809m 
  589.00000m  503.1809m 
  590.00000m  503.1810m 
  591.00000m  503.1810m 
  592.00000m  503.1811m 
  593.00000m  503.1811m 
  594.00000m  503.1812m 
  595.00000m  503.1813m 
  596.00000m  503.1813m 
  597.00000m  503.1814m 
  598.00000m  503.1814m 
  599.00000m  503.1815m 
  600.00000m  503.1816m 
  601.00000m  503.1816m 
  602.00000m  503.1817m 
  603.00000m  503.1817m 
  604.00000m  503.1818m 
  605.00000m  503.1819m 
  606.00000m  503.1819m 
  607.00000m  503.1820m 
  608.00000m  503.1821m 
  609.00000m  503.1821m 
  610.00000m  503.1822m 
  611.00000m  503.1822m 
  612.00000m  503.1823m 
  613.00000m  503.1824m 
  614.00000m  503.1824m 
  615.00000m  503.1825m 
  616.00000m  503.1826m 
  617.00000m  503.1826m 
  618.00000m  503.1827m 
  619.00000m  503.1828m 
  620.00000m  503.1828m 
  621.00000m  503.1829m 
  622.00000m  503.1830m 
  623.00000m  503.1830m 
  624.00000m  503.1831m 
  625.00000m  503.1832m 
  626.00000m  503.1833m 
  627.00000m  503.1833m 
  628.00000m  503.1834m 
  629.00000m  503.1835m 
  630.00000m  503.1835m 
  631.00000m  503.1836m 
  632.00000m  503.1837m 
  633.00000m  503.1837m 
  634.00000m  503.1838m 
  635.00000m  503.1839m 
  636.00000m  503.1840m 
  637.00000m  503.1840m 
  638.00000m  503.1841m 
  639.00000m  503.1842m 
  640.00000m  503.1843m 
  641.00000m  503.1843m 
  642.00000m  503.1844m 
  643.00000m  503.1845m 
  644.00000m  503.1846m 
  645.00000m  503.1846m 
  646.00000m  503.1847m 
  647.00000m  503.1848m 
  648.00000m  503.1849m 
  649.00000m  503.1849m 
  650.00000m  503.1850m 
  651.00000m  503.1851m 
  652.00000m  503.1852m 
  653.00000m  503.1853m 
  654.00000m  503.1853m 
  655.00000m  503.1854m 
  656.00000m  503.1855m 
  657.00000m  503.1856m 
  658.00000m  503.1857m 
  659.00000m  503.1857m 
  660.00000m  503.1858m 
  661.00000m  503.1859m 
  662.00000m  503.1860m 
  663.00000m  503.1861m 
  664.00000m  503.1861m 
  665.00000m  503.1862m 
  666.00000m  503.1863m 
  667.00000m  503.1864m 
  668.00000m  503.1865m 
  669.00000m  503.1866m 
  670.00000m  503.1866m 
  671.00000m  503.1867m 
  672.00000m  503.1868m 
  673.00000m  503.1869m 
  674.00000m  503.1870m 
  675.00000m  503.1871m 
  676.00000m  503.1871m 
  677.00000m  503.1872m 
  678.00000m  503.1873m 
  679.00000m  503.1874m 
  680.00000m  503.1875m 
  681.00000m  503.1876m 
  682.00000m  503.1877m 
  683.00000m  503.1877m 
  684.00000m  503.1878m 
  685.00000m  503.1879m 
  686.00000m  503.1880m 
  687.00000m  503.1881m 
  688.00000m  503.1882m 
  689.00000m  503.1883m 
  690.00000m  503.1883m 
  691.00000m  503.1884m 
  692.00000m  503.1885m 
  693.00000m  503.1886m 
  694.00000m  503.1887m 
  695.00000m  503.1888m 
  696.00000m  503.1889m 
  697.00000m  503.1890m 
  698.00000m  503.1891m 
  699.00000m  503.1891m 
  700.00000m  503.1892m 
  701.00000m  503.1893m 
  702.00000m  503.1894m 
  703.00000m  503.1895m 
  704.00000m  503.1896m 
  705.00000m  503.1897m 
  706.00000m  503.1898m 
  707.00000m  503.1899m 
  708.00000m  503.1900m 
  709.00000m  503.1900m 
  710.00000m  503.1901m 
  711.00000m  503.1902m 
  712.00000m  503.1903m 
  713.00000m  503.1904m 
  714.00000m  503.1905m 
  715.00000m  503.1906m 
  716.00000m  503.1907m 
  717.00000m  503.1908m 
  718.00000m  503.1909m 
  719.00000m  503.1910m 
  720.00000m  503.1911m 
  721.00000m  503.1911m 
  722.00000m  503.1912m 
  723.00000m  503.1913m 
  724.00000m  503.1914m 
  725.00000m  503.1915m 
  726.00000m  503.1916m 
  727.00000m  503.1917m 
  728.00000m  503.1918m 
  729.00000m  503.1919m 
  730.00000m  503.1920m 
  731.00000m  503.1921m 
  732.00000m  503.1922m 
  733.00000m  503.1923m 
  734.00000m  503.1924m 
  735.00000m  503.1925m 
  736.00000m  503.1925m 
  737.00000m  503.1926m 
  738.00000m  503.1927m 
  739.00000m  503.1928m 
  740.00000m  503.1929m 
  741.00000m  503.1930m 
  742.00000m  503.1931m 
  743.00000m  503.1932m 
  744.00000m  503.1933m 
  745.00000m  503.1934m 
  746.00000m  503.1935m 
  747.00000m  503.1936m 
  748.00000m  503.1937m 
  749.00000m  503.1938m 
  750.00000m  503.1939m 
  751.00000m  503.1940m 
  752.00000m  503.1941m 
  753.00000m  503.1942m 
  754.00000m  503.1943m 
  755.00000m  503.1943m 
  756.00000m  503.1944m 
  757.00000m  503.1945m 
  758.00000m  503.1946m 
  759.00000m  503.1947m 
  760.00000m  503.1948m 
  761.00000m  503.1949m 
  762.00000m  503.1950m 
  763.00000m  503.1951m 
  764.00000m  503.1952m 
  765.00000m  503.1953m 
  766.00000m  503.1954m 
  767.00000m  503.1955m 
  768.00000m  503.1956m 
  769.00000m  503.1957m 
  770.00000m  503.1958m 
  771.00000m  503.1959m 
  772.00000m  503.1960m 
  773.00000m  503.1961m 
  774.00000m  503.1962m 
  775.00000m  503.1963m 
  776.00000m  503.1964m 
  777.00000m  503.1965m 
  778.00000m  503.1966m 
  779.00000m  503.1967m 
  780.00000m  503.1968m 
  781.00000m  503.1968m 
  782.00000m  503.1969m 
  783.00000m  503.1970m 
  784.00000m  503.1971m 
  785.00000m  503.1972m 
  786.00000m  503.1973m 
  787.00000m  503.1974m 
  788.00000m  503.1975m 
  789.00000m  503.1976m 
  790.00000m  503.1977m 
  791.00000m  503.1978m 
  792.00000m  503.1979m 
  793.00000m  503.1980m 
  794.00000m  503.1981m 
  795.00000m  503.1982m 
  796.00000m  503.1983m 
  797.00000m  503.1984m 
  798.00000m  503.1985m 
  799.00000m  503.1986m 
  800.00000m  503.1987m 
  801.00000m  503.1988m 
  802.00000m  503.1989m 
  803.00000m  503.1990m 
  804.00000m  503.1991m 
  805.00000m  503.1992m 
  806.00000m  503.1993m 
  807.00000m  503.1994m 
  808.00000m  503.1995m 
  809.00000m  503.1996m 
  810.00000m  503.1997m 
  811.00000m  503.1998m 
  812.00000m  503.1999m 
  813.00000m  503.1999m 
  814.00000m  503.2000m 
  815.00000m  503.2001m 
  816.00000m  503.2002m 
  817.00000m  503.2003m 
  818.00000m  503.2004m 
  819.00000m  503.2005m 
  820.00000m  503.2006m 
  821.00000m  503.2007m 
  822.00000m  503.2008m 
  823.00000m  503.2009m 
  824.00000m  503.2010m 
  825.00000m  503.2011m 
  826.00000m  503.2012m 
  827.00000m  503.2013m 
  828.00000m  503.2014m 
  829.00000m  503.2015m 
  830.00000m  503.2016m 
  831.00000m  503.2017m 
  832.00000m  503.2018m 
  833.00000m  503.2019m 
  834.00000m  503.2020m 
  835.00000m  503.2021m 
  836.00000m  503.2022m 
  837.00000m  503.2023m 
  838.00000m  503.2024m 
  839.00000m  503.2025m 
  840.00000m  503.2026m 
  841.00000m  503.2027m 
  842.00000m  503.2027m 
  843.00000m  503.2028m 
  844.00000m  503.2029m 
  845.00000m  503.2030m 
  846.00000m  503.2031m 
  847.00000m  503.2032m 
  848.00000m  503.2033m 
  849.00000m  503.2034m 
  850.00000m  503.2035m 
  851.00000m  503.2036m 
  852.00000m  503.2037m 
  853.00000m  503.2038m 
  854.00000m  503.2039m 
  855.00000m  503.2040m 
  856.00000m  503.2041m 
  857.00000m  503.2042m 
  858.00000m  503.2043m 
  859.00000m  503.2044m 
  860.00000m  503.2045m 
  861.00000m  503.2046m 
  862.00000m  503.2047m 
  863.00000m  503.2048m 
  864.00000m  503.2049m 
  865.00000m  503.2049m 
  866.00000m  503.2050m 
  867.00000m  503.2051m 
  868.00000m  503.2052m 
  869.00000m  503.2053m 
  870.00000m  503.2054m 
  871.00000m  503.2055m 
  872.00000m  503.2056m 
  873.00000m  503.2057m 
  874.00000m  503.2058m 
  875.00000m  503.2059m 
  876.00000m  503.2060m 
  877.00000m  503.2061m 
  878.00000m  503.2062m 
  879.00000m  503.2063m 
  880.00000m  503.2064m 
  881.00000m  503.2065m 
  882.00000m  503.2066m 
  883.00000m  503.2067m 
  884.00000m  503.2068m 
  885.00000m  503.2068m 
  886.00000m  503.2069m 
  887.00000m  503.2070m 
  888.00000m  503.2071m 
  889.00000m  503.2072m 
  890.00000m  503.2073m 
  891.00000m  503.2074m 
  892.00000m  503.2075m 
  893.00000m  503.2076m 
  894.00000m  503.2077m 
  895.00000m  503.2078m 
  896.00000m  503.2079m 
  897.00000m  503.2080m 
  898.00000m  503.2081m 
  899.00000m  503.2082m 
  900.00000m  503.2083m 
  901.00000m  503.2083m 
  902.00000m  503.2084m 
  903.00000m  503.2085m 
  904.00000m  503.2086m 
  905.00000m  503.2087m 
  906.00000m  503.2088m 
  907.00000m  503.2089m 
  908.00000m  503.2090m 
  909.00000m  503.2091m 
  910.00000m  503.2092m 
  911.00000m  503.2093m 
  912.00000m  503.2094m 
  913.00000m  503.2095m 
  914.00000m  503.2096m 
  915.00000m  503.2096m 
  916.00000m  503.2097m 
  917.00000m  503.2098m 
  918.00000m  503.2099m 
  919.00000m  503.2100m 
  920.00000m  503.2101m 
  921.00000m  503.2102m 
  922.00000m  503.2103m 
  923.00000m  503.2104m 
  924.00000m  503.2105m 
  925.00000m  503.2106m 
  926.00000m  503.2107m 
  927.00000m  503.2108m 
  928.00000m  503.2108m 
  929.00000m  503.2109m 
  930.00000m  503.2110m 
  931.00000m  503.2111m 
  932.00000m  503.2112m 
  933.00000m  503.2113m 
  934.00000m  503.2114m 
  935.00000m  503.2115m 
  936.00000m  503.2116m 
  937.00000m  503.2117m 
  938.00000m  503.2118m 
  939.00000m  503.2119m 
  940.00000m  503.2119m 
  941.00000m  503.2120m 
  942.00000m  503.2121m 
  943.00000m  503.2122m 
  944.00000m  503.2123m 
  945.00000m  503.2124m 
  946.00000m  503.2125m 
  947.00000m  503.2126m 
  948.00000m  503.2127m 
  949.00000m  503.2128m 
  950.00000m  503.2129m 
  951.00000m  503.2129m 
  952.00000m  503.2130m 
  953.00000m  503.2131m 
  954.00000m  503.2132m 
  955.00000m  503.2133m 
  956.00000m  503.2134m 
  957.00000m  503.2135m 
  958.00000m  503.2136m 
  959.00000m  503.2137m 
  960.00000m  503.2138m 
  961.00000m  503.2138m 
  962.00000m  503.2139m 
  963.00000m  503.2140m 
  964.00000m  503.2141m 
  965.00000m  503.2142m 
  966.00000m  503.2143m 
  967.00000m  503.2144m 
  968.00000m  503.2145m 
  969.00000m  503.2146m 
  970.00000m  503.2147m 
  971.00000m  503.2147m 
  972.00000m  503.2148m 
  973.00000m  503.2149m 
  974.00000m  503.2150m 
  975.00000m  503.2151m 
  976.00000m  503.2152m 
  977.00000m  503.2153m 
  978.00000m  503.2154m 
  979.00000m  503.2154m 
  980.00000m  503.2155m 
  981.00000m  503.2156m 
  982.00000m  503.2157m 
  983.00000m  503.2158m 
  984.00000m  503.2159m 
  985.00000m  503.2160m 
  986.00000m  503.2161m 
  987.00000m  503.2162m 
  988.00000m  503.2162m 
  989.00000m  503.2163m 
  990.00000m  503.2164m 
  991.00000m  503.2165m 
  992.00000m  503.2166m 
  993.00000m  503.2167m 
  994.00000m  503.2168m 
  995.00000m  503.2169m 
  996.00000m  503.2169m 
  997.00000m  503.2170m 
  998.00000m  503.2171m 
  999.00000m  503.2172m 
    1.00000   503.2173m 
    1.00100   503.2174m 
    1.00200   503.2175m 
    1.00300   503.2176m 
    1.00400   503.2176m 
    1.00500   503.2177m 
    1.00600   503.2178m 
    1.00700   503.2179m 
    1.00800   503.2180m 
    1.00900   503.2181m 
    1.01000   503.2182m 
    1.01100   503.2182m 
    1.01200   503.2183m 
    1.01300   503.2184m 
    1.01400   503.2185m 
    1.01500   503.2186m 
    1.01600   503.2187m 
    1.01700   503.2188m 
    1.01800   503.2188m 
    1.01900   503.2189m 
    1.02000   503.2190m 
    1.02100   503.2191m 
    1.02200   503.2192m 
    1.02300   503.2193m 
    1.02400   503.2194m 
    1.02500   503.2194m 
    1.02600   503.2195m 
    1.02700   503.2196m 
    1.02800   503.2197m 
    1.02900   503.2198m 
    1.03000   503.2199m 
    1.03100   503.2200m 
    1.03200   503.2200m 
    1.03300   503.2201m 
    1.03400   503.2202m 
    1.03500   503.2203m 
    1.03600   503.2204m 
    1.03700   503.2205m 
    1.03800   503.2206m 
    1.03900   503.2206m 
    1.04000   503.2207m 
    1.04100   503.2208m 
    1.04200   503.2209m 
    1.04300   503.2210m 
    1.04400   503.2211m 
    1.04500   503.2211m 
    1.04600   503.2212m 
    1.04700   503.2213m 
    1.04800   503.2214m 
    1.04900   503.2215m 
    1.05000   503.2216m 
    1.05100   503.2216m 
    1.05200   503.2217m 
    1.05300   503.2218m 
    1.05400   503.2219m 
    1.05500   503.2220m 
    1.05600   503.2221m 
    1.05700   503.2221m 
    1.05800   503.2222m 
    1.05900   503.2223m 
    1.06000   503.2224m 
    1.06100   503.2225m 
    1.06200   503.2226m 
    1.06300   503.2226m 
    1.06400   503.2227m 
    1.06500   503.2228m 
    1.06600   503.2229m 
    1.06700   503.2230m 
    1.06800   503.2231m 
    1.06900   503.2231m 
    1.07000   503.2232m 
    1.07100   503.2233m 
    1.07200   503.2234m 
    1.07300   503.2235m 
    1.07400   503.2235m 
    1.07500   503.2236m 
    1.07600   503.2237m 
    1.07700   503.2238m 
    1.07800   503.2239m 
    1.07900   503.2240m 
    1.08000   503.2240m 
    1.08100   503.2241m 
    1.08200   503.2242m 
    1.08300   503.2243m 
    1.08400   503.2244m 
    1.08500   503.2244m 
    1.08600   503.2245m 
    1.08700   503.2246m 
    1.08800   503.2247m 
    1.08900   503.2248m 
    1.09000   503.2248m 
    1.09100   503.2249m 
    1.09200   503.2250m 
    1.09300   503.2251m 
    1.09400   503.2252m 
    1.09500   503.2252m 
    1.09600   503.2253m 
    1.09700   503.2254m 
    1.09800   503.2255m 
    1.09900   503.2256m 
    1.10000   503.2256m 
    1.10100   503.2257m 
    1.10200   503.2258m 
    1.10300   503.2259m 
    1.10400   503.2260m 
    1.10500   503.2260m 
    1.10600   503.2261m 
    1.10700   503.2262m 
    1.10800   503.2263m 
    1.10900   503.2264m 
    1.11000   503.2264m 
    1.11100   503.2265m 
    1.11200   503.2266m 
    1.11300   503.2267m 
    1.11400   503.2268m 
    1.11500   503.2268m 
    1.11600   503.2269m 
    1.11700   503.2270m 
    1.11800   503.2271m 
    1.11900   503.2272m 
    1.12000   503.2272m 
    1.12100   503.2273m 
    1.12200   503.2274m 
    1.12300   503.2275m 
    1.12400   503.2275m 
    1.12500   503.2276m 
    1.12600   503.2277m 
    1.12700   503.2278m 
    1.12800   503.2279m 
    1.12900   503.2279m 
    1.13000   503.2280m 
    1.13100   503.2281m 
    1.13200   503.2282m 
    1.13300   503.2283m 
    1.13400   503.2283m 
    1.13500   503.2284m 
    1.13600   503.2285m 
    1.13700   503.2286m 
    1.13800   503.2286m 
    1.13900   503.2287m 
    1.14000   503.2288m 
    1.14100   503.2289m 
    1.14200   503.2289m 
    1.14300   503.2290m 
    1.14400   503.2291m 
    1.14500   503.2292m 
    1.14600   503.2293m 
    1.14700   503.2293m 
    1.14800   503.2294m 
    1.14900   503.2295m 
    1.15000   503.2296m 
    1.15100   503.2296m 
    1.15200   503.2297m 
    1.15300   503.2298m 
    1.15400   503.2299m 
    1.15500   503.2299m 
    1.15600   503.2300m 
    1.15700   503.2301m 
    1.15800   503.2302m 
    1.15900   503.2302m 
    1.16000   503.2303m 
    1.16100   503.2304m 
    1.16200   503.2305m 
    1.16300   503.2306m 
    1.16400   503.2306m 
    1.16500   503.2307m 
    1.16600   503.2308m 
    1.16700   503.2309m 
    1.16800   503.2309m 
    1.16900   503.2310m 
    1.17000   503.2311m 
    1.17100   503.2312m 
    1.17200   503.2312m 
    1.17300   503.2313m 
    1.17400   503.2314m 
    1.17500   503.2315m 
    1.17600   503.2315m 
    1.17700   503.2316m 
    1.17800   503.2317m 
    1.17900   503.2318m 
    1.18000   503.2318m 
    1.18100   503.2319m 
    1.18200   503.2320m 
    1.18300   503.2320m 
    1.18400   503.2321m 
    1.18500   503.2322m 
    1.18600   503.2323m 
    1.18700   503.2323m 
    1.18800   503.2324m 
    1.18900   503.2325m 
    1.19000   503.2326m 
    1.19100   503.2326m 
    1.19200   503.2327m 
    1.19300   503.2328m 
    1.19400   503.2329m 
    1.19500   503.2329m 
    1.19600   503.2330m 
    1.19700   503.2331m 
    1.19800   503.2332m 
    1.19900   503.2332m 
    1.20000   503.2333m 
    1.20100   503.2334m 
    1.20200   503.2334m 
    1.20300   503.2335m 
    1.20400   503.2336m 
    1.20500   503.2337m 
    1.20600   503.2337m 
    1.20700   503.2338m 
    1.20800   503.2339m 
    1.20900   503.2340m 
    1.21000   503.2340m 
    1.21100   503.2341m 
    1.21200   503.2342m 
    1.21300   503.2342m 
    1.21400   503.2343m 
    1.21500   503.2344m 
    1.21600   503.2345m 
    1.21700   503.2345m 
    1.21800   503.2346m 
    1.21900   503.2347m 
    1.22000   503.2347m 
    1.22100   503.2348m 
    1.22200   503.2349m 
    1.22300   503.2350m 
    1.22400   503.2350m 
    1.22500   503.2351m 
    1.22600   503.2352m 
    1.22700   503.2352m 
    1.22800   503.2353m 
    1.22900   503.2354m 
    1.23000   503.2355m 
    1.23100   503.2355m 
    1.23200   503.2356m 
    1.23300   503.2357m 
    1.23400   503.2357m 
    1.23500   503.2358m 
    1.23600   503.2359m 
    1.23700   503.2360m 
    1.23800   503.2360m 
    1.23900   503.2361m 
    1.24000   503.2362m 
    1.24100   503.2362m 
    1.24200   503.2363m 
    1.24300   503.2364m 
    1.24400   503.2364m 
    1.24500   503.2365m 
    1.24600   503.2366m 
    1.24700   503.2367m 
    1.24800   503.2367m 
    1.24900   503.2368m 
    1.25000   503.2369m 
    1.25100   503.2369m 
    1.25200   503.2370m 
    1.25300   503.2371m 
    1.25400   503.2371m 
    1.25500   503.2372m 
    1.25600   503.2373m 
    1.25700   503.2373m 
    1.25800   503.2374m 
    1.25900   503.2375m 
    1.26000   503.2376m 
    1.26100   503.2376m 
    1.26200   503.2377m 
    1.26300   503.2378m 
    1.26400   503.2378m 
    1.26500   503.2379m 
    1.26600   503.2380m 
    1.26700   503.2380m 
    1.26800   503.2381m 
    1.26900   503.2382m 
    1.27000   503.2382m 
    1.27100   503.2383m 
    1.27200   503.2384m 
    1.27300   503.2384m 
    1.27400   503.2385m 
    1.27500   503.2386m 
    1.27600   503.2386m 
    1.27700   503.2387m 
    1.27800   503.2388m 
    1.27900   503.2389m 
    1.28000   503.2389m 
    1.28100   503.2390m 
    1.28200   503.2391m 
    1.28300   503.2391m 
    1.28400   503.2392m 
    1.28500   503.2393m 
    1.28600   503.2393m 
    1.28700   503.2394m 
    1.28800   503.2395m 
    1.28900   503.2395m 
    1.29000   503.2396m 
    1.29100   503.2397m 
    1.29200   503.2397m 
    1.29300   503.2398m 
    1.29400   503.2399m 
    1.29500   503.2399m 
    1.29600   503.2400m 
    1.29700   503.2401m 
    1.29800   503.2401m 
    1.29900   503.2402m 
    1.30000   503.2403m 
    1.30100   503.2403m 
    1.30200   503.2404m 
    1.30300   503.2405m 
    1.30400   503.2405m 
    1.30500   503.2406m 
    1.30600   503.2407m 
    1.30700   503.2407m 
    1.30800   503.2408m 
    1.30900   503.2409m 
    1.31000   503.2409m 
    1.31100   503.2410m 
    1.31200   503.2410m 
    1.31300   503.2411m 
    1.31400   503.2412m 
    1.31500   503.2412m 
    1.31600   503.2413m 
    1.31700   503.2414m 
    1.31800   503.2414m 
    1.31900   503.2415m 
    1.32000   503.2416m 
    1.32100   503.2416m 
    1.32200   503.2417m 
    1.32300   503.2418m 
    1.32400   503.2418m 
    1.32500   503.2419m 
    1.32600   503.2420m 
    1.32700   503.2420m 
    1.32800   503.2421m 
    1.32900   503.2422m 
    1.33000   503.2422m 
    1.33100   503.2423m 
    1.33200   503.2423m 
    1.33300   503.2424m 
    1.33400   503.2425m 
    1.33500   503.2425m 
    1.33600   503.2426m 
    1.33700   503.2427m 
    1.33800   503.2427m 
    1.33900   503.2428m 
    1.34000   503.2429m 
    1.34100   503.2429m 
    1.34200   503.2430m 
    1.34300   503.2430m 
    1.34400   503.2431m 
    1.34500   503.2432m 
    1.34600   503.2432m 
    1.34700   503.2433m 
    1.34800   503.2434m 
    1.34900   503.2434m 
    1.35000   503.2435m 
    1.35100   503.2436m 
    1.35200   503.2436m 
    1.35300   503.2437m 
    1.35400   503.2437m 
    1.35500   503.2438m 
    1.35600   503.2439m 
    1.35700   503.2439m 
    1.35800   503.2440m 
    1.35900   503.2441m 
    1.36000   503.2441m 
    1.36100   503.2442m 
    1.36200   503.2442m 
    1.36300   503.2443m 
    1.36400   503.2444m 
    1.36500   503.2444m 
    1.36600   503.2445m 
    1.36700   503.2445m 
    1.36800   503.2446m 
    1.36900   503.2447m 
    1.37000   503.2447m 
    1.37100   503.2448m 
    1.37200   503.2449m 
    1.37300   503.2449m 
    1.37400   503.2450m 
    1.37500   503.2450m 
    1.37600   503.2451m 
    1.37700   503.2452m 
    1.37800   503.2452m 
    1.37900   503.2453m 
    1.38000   503.2453m 
    1.38100   503.2454m 
    1.38200   503.2455m 
    1.38300   503.2455m 
    1.38400   503.2456m 
    1.38500   503.2457m 
    1.38600   503.2457m 
    1.38700   503.2458m 
    1.38800   503.2458m 
    1.38900   503.2459m 
    1.39000   503.2460m 
    1.39100   503.2460m 
    1.39200   503.2461m 
    1.39300   503.2461m 
    1.39400   503.2462m 
    1.39500   503.2463m 
    1.39600   503.2463m 
    1.39700   503.2464m 
    1.39800   503.2464m 
    1.39900   503.2465m 
    1.40000   503.2466m 
    1.40100   503.2466m 
    1.40200   503.2467m 
    1.40300   503.2467m 
    1.40400   503.2468m 
    1.40500   503.2469m 
    1.40600   503.2469m 
    1.40700   503.2470m 
    1.40800   503.2470m 
    1.40900   503.2471m 
    1.41000   503.2472m 
    1.41100   503.2472m 
    1.41200   503.2473m 
    1.41300   503.2473m 
    1.41400   503.2474m 
    1.41500   503.2474m 
    1.41600   503.2475m 
    1.41700   503.2476m 
    1.41800   503.2476m 
    1.41900   503.2477m 
    1.42000   503.2477m 
    1.42100   503.2478m 
    1.42200   503.2479m 
    1.42300   503.2479m 
    1.42400   503.2480m 
    1.42500   503.2480m 
    1.42600   503.2481m 
    1.42700   503.2482m 
    1.42800   503.2482m 
    1.42900   503.2483m 
    1.43000   503.2483m 
    1.43100   503.2484m 
    1.43200   503.2484m 
    1.43300   503.2485m 
    1.43400   503.2486m 
    1.43500   503.2486m 
    1.43600   503.2487m 
    1.43700   503.2487m 
    1.43800   503.2488m 
    1.43900   503.2488m 
    1.44000   503.2489m 
    1.44100   503.2490m 
    1.44200   503.2490m 
    1.44300   503.2491m 
    1.44400   503.2491m 
    1.44500   503.2492m 
    1.44600   503.2492m 
    1.44700   503.2493m 
    1.44800   503.2494m 
    1.44900   503.2494m 
    1.45000   503.2495m 
    1.45100   503.2495m 
    1.45200   503.2496m 
    1.45300   503.2496m 
    1.45400   503.2497m 
    1.45500   503.2498m 
    1.45600   503.2498m 
    1.45700   503.2499m 
    1.45800   503.2499m 
    1.45900   503.2500m 
    1.46000   503.2500m 
    1.46100   503.2501m 
    1.46200   503.2501m 
    1.46300   503.2502m 
    1.46400   503.2503m 
    1.46500   503.2503m 
    1.46600   503.2504m 
    1.46700   503.2504m 
    1.46800   503.2505m 
    1.46900   503.2505m 
    1.47000   503.2506m 
    1.47100   503.2507m 
    1.47200   503.2507m 
    1.47300   503.2508m 
    1.47400   503.2508m 
    1.47500   503.2509m 
    1.47600   503.2509m 
    1.47700   503.2510m 
    1.47800   503.2510m 
    1.47900   503.2511m 
    1.48000   503.2511m 
    1.48100   503.2512m 
    1.48200   503.2513m 
    1.48300   503.2513m 
    1.48400   503.2514m 
    1.48500   503.2514m 
    1.48600   503.2515m 
    1.48700   503.2515m 
    1.48800   503.2516m 
    1.48900   503.2516m 
    1.49000   503.2517m 
    1.49100   503.2518m 
    1.49200   503.2518m 
    1.49300   503.2519m 
    1.49400   503.2519m 
    1.49500   503.2520m 
    1.49600   503.2520m 
    1.49700   503.2521m 
    1.49800   503.2521m 
    1.49900   503.2522m 
    1.50000   503.2522m 
    1.50100   503.2523m 
    1.50200   503.2523m 
    1.50300   503.2524m 
    1.50400   503.2525m 
    1.50500   503.2525m 
    1.50600   503.2526m 
    1.50700   503.2526m 
    1.50800   503.2527m 
    1.50900   503.2527m 
    1.51000   503.2528m 
    1.51100   503.2528m 
    1.51200   503.2529m 
    1.51300   503.2529m 
    1.51400   503.2530m 
    1.51500   503.2530m 
    1.51600   503.2531m 
    1.51700   503.2531m 
    1.51800   503.2532m 
    1.51900   503.2532m 
    1.52000   503.2533m 
    1.52100   503.2534m 
    1.52200   503.2534m 
    1.52300   503.2535m 
    1.52400   503.2535m 
    1.52500   503.2536m 
    1.52600   503.2536m 
    1.52700   503.2537m 
    1.52800   503.2537m 
    1.52900   503.2538m 
    1.53000   503.2538m 
    1.53100   503.2539m 
    1.53200   503.2539m 
    1.53300   503.2540m 
    1.53400   503.2540m 
    1.53500   503.2541m 
    1.53600   503.2541m 
    1.53700   503.2542m 
    1.53800   503.2542m 
    1.53900   503.2543m 
    1.54000   503.2543m 
    1.54100   503.2544m 
    1.54200   503.2544m 
    1.54300   503.2545m 
    1.54400   503.2546m 
    1.54500   503.2546m 
    1.54600   503.2547m 
    1.54700   503.2547m 
    1.54800   503.2548m 
    1.54900   503.2548m 
    1.55000   503.2549m 
    1.55100   503.2549m 
    1.55200   503.2550m 
    1.55300   503.2550m 
    1.55400   503.2551m 
    1.55500   503.2551m 
    1.55600   503.2552m 
    1.55700   503.2552m 
    1.55800   503.2553m 
    1.55900   503.2553m 
    1.56000   503.2554m 
    1.56100   503.2554m 
    1.56200   503.2555m 
    1.56300   503.2555m 
    1.56400   503.2556m 
    1.56500   503.2556m 
    1.56600   503.2557m 
    1.56700   503.2557m 
    1.56800   503.2558m 
    1.56900   503.2558m 
    1.57000   503.2559m 
    1.57100   503.2559m 
    1.57200   503.2560m 
    1.57300   503.2560m 
    1.57400   503.2561m 
    1.57500   503.2561m 
    1.57600   503.2562m 
    1.57700   503.2562m 
    1.57800   503.2563m 
    1.57900   503.2563m 
    1.58000   503.2564m 
    1.58100   503.2564m 
    1.58200   503.2565m 
    1.58300   503.2565m 
    1.58400   503.2566m 
    1.58500   503.2566m 
    1.58600   503.2567m 
    1.58700   503.2567m 
    1.58800   503.2568m 
    1.58900   503.2568m 
    1.59000   503.2569m 
    1.59100   503.2569m 
    1.59200   503.2569m 
    1.59300   503.2570m 
    1.59400   503.2570m 
    1.59500   503.2571m 
    1.59600   503.2571m 
    1.59700   503.2572m 
    1.59800   503.2572m 
    1.59900   503.2573m 
    1.60000   503.2573m 
    1.60100   503.2574m 
    1.60200   503.2574m 
    1.60300   503.2575m 
    1.60400   503.2575m 
    1.60500   503.2576m 
    1.60600   503.2576m 
    1.60700   503.2577m 
    1.60800   503.2577m 
    1.60900   503.2578m 
    1.61000   503.2578m 
    1.61100   503.2579m 
    1.61200   503.2579m 
    1.61300   503.2580m 
    1.61400   503.2580m 
    1.61500   503.2581m 
    1.61600   503.2581m 
    1.61700   503.2582m 
    1.61800   503.2582m 
    1.61900   503.2582m 
    1.62000   503.2583m 
    1.62100   503.2583m 
    1.62200   503.2584m 
    1.62300   503.2584m 
    1.62400   503.2585m 
    1.62500   503.2585m 
    1.62600   503.2586m 
    1.62700   503.2586m 
    1.62800   503.2587m 
    1.62900   503.2587m 
    1.63000   503.2588m 
    1.63100   503.2588m 
    1.63200   503.2589m 
    1.63300   503.2589m 
    1.63400   503.2589m 
    1.63500   503.2590m 
    1.63600   503.2590m 
    1.63700   503.2591m 
    1.63800   503.2591m 
    1.63900   503.2592m 
    1.64000   503.2592m 
    1.64100   503.2593m 
    1.64200   503.2593m 
    1.64300   503.2594m 
    1.64400   503.2594m 
    1.64500   503.2595m 
    1.64600   503.2595m 
    1.64700   503.2595m 
    1.64800   503.2596m 
    1.64900   503.2596m 
    1.65000   503.2597m 
    1.65100   503.2597m 
    1.65200   503.2598m 
    1.65300   503.2598m 
    1.65400   503.2599m 
    1.65500   503.2599m 
    1.65600   503.2600m 
    1.65700   503.2600m 
    1.65800   503.2600m 
    1.65900   503.2601m 
    1.66000   503.2601m 
    1.66100   503.2602m 
    1.66200   503.2602m 
    1.66300   503.2603m 
    1.66400   503.2603m 
    1.66500   503.2604m 
    1.66600   503.2604m 
    1.66700   503.2605m 
    1.66800   503.2605m 
    1.66900   503.2605m 
    1.67000   503.2606m 
    1.67100   503.2606m 
    1.67200   503.2607m 
    1.67300   503.2607m 
    1.67400   503.2608m 
    1.67500   503.2608m 
    1.67600   503.2609m 
    1.67700   503.2609m 
    1.67800   503.2609m 
    1.67900   503.2610m 
    1.68000   503.2610m 
    1.68100   503.2611m 
    1.68200   503.2611m 
    1.68300   503.2612m 
    1.68400   503.2612m 
    1.68500   503.2612m 
    1.68600   503.2613m 
    1.68700   503.2613m 
    1.68800   503.2614m 
    1.68900   503.2614m 
    1.69000   503.2615m 
    1.69100   503.2615m 
    1.69200   503.2616m 
    1.69300   503.2616m 
    1.69400   503.2616m 
    1.69500   503.2617m 
    1.69600   503.2617m 
    1.69700   503.2618m 
    1.69800   503.2618m 
    1.69900   503.2619m 
    1.70000   503.2619m 
    1.70100   503.2619m 
    1.70200   503.2620m 
    1.70300   503.2620m 
    1.70400   503.2621m 
    1.70500   503.2621m 
    1.70600   503.2622m 
    1.70700   503.2622m 
    1.70800   503.2622m 
    1.70900   503.2623m 
    1.71000   503.2623m 
    1.71100   503.2624m 
    1.71200   503.2624m 
    1.71300   503.2625m 
    1.71400   503.2625m 
    1.71500   503.2625m 
    1.71600   503.2626m 
    1.71700   503.2626m 
    1.71800   503.2627m 
    1.71900   503.2627m 
    1.72000   503.2628m 
    1.72100   503.2628m 
    1.72200   503.2628m 
    1.72300   503.2629m 
    1.72400   503.2629m 
    1.72500   503.2630m 
    1.72600   503.2630m 
    1.72700   503.2630m 
    1.72800   503.2631m 
    1.72900   503.2631m 
    1.73000   503.2632m 
    1.73100   503.2632m 
    1.73200   503.2633m 
    1.73300   503.2633m 
    1.73400   503.2633m 
    1.73500   503.2634m 
    1.73600   503.2634m 
    1.73700   503.2635m 
    1.73800   503.2635m 
    1.73900   503.2635m 
    1.74000   503.2636m 
    1.74100   503.2636m 
    1.74200   503.2637m 
    1.74300   503.2637m 
    1.74400   503.2637m 
    1.74500   503.2638m 
    1.74600   503.2638m 
    1.74700   503.2639m 
    1.74800   503.2639m 
    1.74900   503.2640m 
    1.75000   503.2640m 
    1.75100   503.2640m 
    1.75200   503.2641m 
    1.75300   503.2641m 
    1.75400   503.2642m 
    1.75500   503.2642m 
    1.75600   503.2642m 
    1.75700   503.2643m 
    1.75800   503.2643m 
    1.75900   503.2644m 
    1.76000   503.2644m 
    1.76100   503.2644m 
    1.76200   503.2645m 
    1.76300   503.2645m 
    1.76400   503.2646m 
    1.76500   503.2646m 
    1.76600   503.2646m 
    1.76700   503.2647m 
    1.76800   503.2647m 
    1.76900   503.2648m 
    1.77000   503.2648m 
    1.77100   503.2648m 
    1.77200   503.2649m 
    1.77300   503.2649m 
    1.77400   503.2650m 
    1.77500   503.2650m 
    1.77600   503.2650m 
    1.77700   503.2651m 
    1.77800   503.2651m 
    1.77900   503.2652m 
    1.78000   503.2652m 
    1.78100   503.2652m 
    1.78200   503.2653m 
    1.78300   503.2653m 
    1.78400   503.2653m 
    1.78500   503.2654m 
    1.78600   503.2654m 
    1.78700   503.2655m 
    1.78800   503.2655m 
    1.78900   503.2655m 
    1.79000   503.2656m 
    1.79100   503.2656m 
    1.79200   503.2657m 
    1.79300   503.2657m 
    1.79400   503.2657m 
    1.79500   503.2658m 
    1.79600   503.2658m 
    1.79700   503.2659m 
    1.79800   503.2659m 
    1.79900   503.2659m 
    1.80000   503.2660m 
y
x

 volt         param     
             m2_vth     
    0.        489.0432m 
    1.00000m  489.0432m 
    2.00000m  489.0432m 
    3.00000m  489.0432m 
    4.00000m  489.0432m 
    5.00000m  489.0431m 
    6.00000m  489.0431m 
    7.00000m  489.0431m 
    8.00000m  489.0431m 
    9.00000m  489.0431m 
   10.00000m  489.0431m 
   11.00000m  489.0431m 
   12.00000m  489.0430m 
   13.00000m  489.0430m 
   14.00000m  489.0430m 
   15.00000m  489.0430m 
   16.00000m  489.0430m 
   17.00000m  489.0430m 
   18.00000m  489.0430m 
   19.00000m  489.0429m 
   20.00000m  489.0429m 
   21.00000m  489.0429m 
   22.00000m  489.0429m 
   23.00000m  489.0429m 
   24.00000m  489.0429m 
   25.00000m  489.0429m 
   26.00000m  489.0428m 
   27.00000m  489.0428m 
   28.00000m  489.0428m 
   29.00000m  489.0428m 
   30.00000m  489.0428m 
   31.00000m  489.0428m 
   32.00000m  489.0428m 
   33.00000m  489.0427m 
   34.00000m  489.0427m 
   35.00000m  489.0427m 
   36.00000m  489.0427m 
   37.00000m  489.0427m 
   38.00000m  489.0427m 
   39.00000m  489.0427m 
   40.00000m  489.0427m 
   41.00000m  489.0426m 
   42.00000m  489.0426m 
   43.00000m  489.0426m 
   44.00000m  489.0426m 
   45.00000m  489.0426m 
   46.00000m  489.0426m 
   47.00000m  489.0426m 
   48.00000m  489.0425m 
   49.00000m  489.0425m 
   50.00000m  489.0425m 
   51.00000m  489.0425m 
   52.00000m  489.0425m 
   53.00000m  489.0425m 
   54.00000m  489.0425m 
   55.00000m  489.0424m 
   56.00000m  489.0424m 
   57.00000m  489.0424m 
   58.00000m  489.0424m 
   59.00000m  489.0424m 
   60.00000m  489.0424m 
   61.00000m  489.0424m 
   62.00000m  489.0423m 
   63.00000m  489.0423m 
   64.00000m  489.0423m 
   65.00000m  489.0423m 
   66.00000m  489.0423m 
   67.00000m  489.0423m 
   68.00000m  489.0422m 
   69.00000m  489.0422m 
   70.00000m  489.0422m 
   71.00000m  489.0422m 
   72.00000m  489.0422m 
   73.00000m  489.0422m 
   74.00000m  489.0422m 
   75.00000m  489.0421m 
   76.00000m  489.0421m 
   77.00000m  489.0421m 
   78.00000m  489.0421m 
   79.00000m  489.0421m 
   80.00000m  489.0421m 
   81.00000m  489.0421m 
   82.00000m  489.0420m 
   83.00000m  489.0420m 
   84.00000m  489.0420m 
   85.00000m  489.0420m 
   86.00000m  489.0420m 
   87.00000m  489.0420m 
   88.00000m  489.0420m 
   89.00000m  489.0419m 
   90.00000m  489.0419m 
   91.00000m  489.0419m 
   92.00000m  489.0419m 
   93.00000m  489.0419m 
   94.00000m  489.0419m 
   95.00000m  489.0419m 
   96.00000m  489.0418m 
   97.00000m  489.0418m 
   98.00000m  489.0418m 
   99.00000m  489.0418m 
  100.00000m  489.0418m 
  101.00000m  489.0418m 
  102.00000m  489.0418m 
  103.00000m  489.0417m 
  104.00000m  489.0417m 
  105.00000m  489.0417m 
  106.00000m  489.0417m 
  107.00000m  489.0417m 
  108.00000m  489.0417m 
  109.00000m  489.0416m 
  110.00000m  489.0416m 
  111.00000m  489.0416m 
  112.00000m  489.0416m 
  113.00000m  489.0416m 
  114.00000m  489.0416m 
  115.00000m  489.0416m 
  116.00000m  489.0415m 
  117.00000m  489.0415m 
  118.00000m  489.0415m 
  119.00000m  489.0415m 
  120.00000m  489.0415m 
  121.00000m  489.0415m 
  122.00000m  489.0415m 
  123.00000m  489.0414m 
  124.00000m  489.0414m 
  125.00000m  489.0414m 
  126.00000m  489.0414m 
  127.00000m  489.0414m 
  128.00000m  489.0414m 
  129.00000m  489.0413m 
  130.00000m  489.0413m 
  131.00000m  489.0413m 
  132.00000m  489.0413m 
  133.00000m  489.0413m 
  134.00000m  489.0413m 
  135.00000m  489.0413m 
  136.00000m  489.0412m 
  137.00000m  489.0412m 
  138.00000m  489.0412m 
  139.00000m  489.0412m 
  140.00000m  489.0412m 
  141.00000m  489.0412m 
  142.00000m  489.0411m 
  143.00000m  489.0411m 
  144.00000m  489.0411m 
  145.00000m  489.0411m 
  146.00000m  489.0411m 
  147.00000m  489.0411m 
  148.00000m  489.0411m 
  149.00000m  489.0410m 
  150.00000m  489.0410m 
  151.00000m  489.0410m 
  152.00000m  489.0410m 
  153.00000m  489.0410m 
  154.00000m  489.0410m 
  155.00000m  489.0409m 
  156.00000m  489.0409m 
  157.00000m  489.0409m 
  158.00000m  489.0409m 
  159.00000m  489.0409m 
  160.00000m  489.0409m 
  161.00000m  489.0409m 
  162.00000m  489.0408m 
  163.00000m  489.0408m 
  164.00000m  489.0408m 
  165.00000m  489.0408m 
  166.00000m  489.0408m 
  167.00000m  489.0408m 
  168.00000m  489.0407m 
  169.00000m  489.0407m 
  170.00000m  489.0407m 
  171.00000m  489.0407m 
  172.00000m  489.0407m 
  173.00000m  489.0407m 
  174.00000m  489.0407m 
  175.00000m  489.0406m 
  176.00000m  489.0406m 
  177.00000m  489.0406m 
  178.00000m  489.0406m 
  179.00000m  489.0406m 
  180.00000m  489.0406m 
  181.00000m  489.0405m 
  182.00000m  489.0405m 
  183.00000m  489.0405m 
  184.00000m  489.0405m 
  185.00000m  489.0405m 
  186.00000m  489.0405m 
  187.00000m  489.0404m 
  188.00000m  489.0404m 
  189.00000m  489.0404m 
  190.00000m  489.0404m 
  191.00000m  489.0404m 
  192.00000m  489.0404m 
  193.00000m  489.0404m 
  194.00000m  489.0403m 
  195.00000m  489.0403m 
  196.00000m  489.0403m 
  197.00000m  489.0403m 
  198.00000m  489.0403m 
  199.00000m  489.0403m 
  200.00000m  489.0402m 
  201.00000m  489.0402m 
  202.00000m  489.0402m 
  203.00000m  489.0402m 
  204.00000m  489.0402m 
  205.00000m  489.0402m 
  206.00000m  489.0401m 
  207.00000m  489.0401m 
  208.00000m  489.0401m 
  209.00000m  489.0401m 
  210.00000m  489.0401m 
  211.00000m  489.0401m 
  212.00000m  489.0400m 
  213.00000m  489.0400m 
  214.00000m  489.0400m 
  215.00000m  489.0400m 
  216.00000m  489.0400m 
  217.00000m  489.0400m 
  218.00000m  489.0399m 
  219.00000m  489.0399m 
  220.00000m  489.0399m 
  221.00000m  489.0399m 
  222.00000m  489.0399m 
  223.00000m  489.0399m 
  224.00000m  489.0399m 
  225.00000m  489.0398m 
  226.00000m  489.0398m 
  227.00000m  489.0398m 
  228.00000m  489.0398m 
  229.00000m  489.0398m 
  230.00000m  489.0398m 
  231.00000m  489.0397m 
  232.00000m  489.0397m 
  233.00000m  489.0397m 
  234.00000m  489.0397m 
  235.00000m  489.0397m 
  236.00000m  489.0397m 
  237.00000m  489.0396m 
  238.00000m  489.0396m 
  239.00000m  489.0396m 
  240.00000m  489.0396m 
  241.00000m  489.0396m 
  242.00000m  489.0396m 
  243.00000m  489.0395m 
  244.00000m  489.0395m 
  245.00000m  489.0395m 
  246.00000m  489.0395m 
  247.00000m  489.0395m 
  248.00000m  489.0395m 
  249.00000m  489.0394m 
  250.00000m  489.0394m 
  251.00000m  489.0394m 
  252.00000m  489.0394m 
  253.00000m  489.0394m 
  254.00000m  489.0394m 
  255.00000m  489.0393m 
  256.00000m  489.0393m 
  257.00000m  489.0393m 
  258.00000m  489.0393m 
  259.00000m  489.0393m 
  260.00000m  489.0393m 
  261.00000m  489.0392m 
  262.00000m  489.0392m 
  263.00000m  489.0392m 
  264.00000m  489.0392m 
  265.00000m  489.0392m 
  266.00000m  489.0392m 
  267.00000m  489.0391m 
  268.00000m  489.0391m 
  269.00000m  489.0391m 
  270.00000m  489.0391m 
  271.00000m  489.0391m 
  272.00000m  489.0391m 
  273.00000m  489.0390m 
  274.00000m  489.0390m 
  275.00000m  489.0390m 
  276.00000m  489.0390m 
  277.00000m  489.0390m 
  278.00000m  489.0390m 
  279.00000m  489.0389m 
  280.00000m  489.0389m 
  281.00000m  489.0389m 
  282.00000m  489.0389m 
  283.00000m  489.0389m 
  284.00000m  489.0389m 
  285.00000m  489.0388m 
  286.00000m  489.0388m 
  287.00000m  489.0388m 
  288.00000m  489.0388m 
  289.00000m  489.0388m 
  290.00000m  489.0387m 
  291.00000m  489.0387m 
  292.00000m  489.0387m 
  293.00000m  489.0387m 
  294.00000m  489.0387m 
  295.00000m  489.0387m 
  296.00000m  489.0386m 
  297.00000m  489.0386m 
  298.00000m  489.0386m 
  299.00000m  489.0386m 
  300.00000m  489.0386m 
  301.00000m  489.0386m 
  302.00000m  489.0385m 
  303.00000m  489.0385m 
  304.00000m  489.0385m 
  305.00000m  489.0385m 
  306.00000m  489.0385m 
  307.00000m  489.0385m 
  308.00000m  489.0384m 
  309.00000m  489.0384m 
  310.00000m  489.0384m 
  311.00000m  489.0384m 
  312.00000m  489.0384m 
  313.00000m  489.0384m 
  314.00000m  489.0383m 
  315.00000m  489.0383m 
  316.00000m  489.0383m 
  317.00000m  489.0383m 
  318.00000m  489.0383m 
  319.00000m  489.0382m 
  320.00000m  489.0382m 
  321.00000m  489.0382m 
  322.00000m  489.0382m 
  323.00000m  489.0382m 
  324.00000m  489.0382m 
  325.00000m  489.0381m 
  326.00000m  489.0381m 
  327.00000m  489.0381m 
  328.00000m  489.0381m 
  329.00000m  489.0381m 
  330.00000m  489.0381m 
  331.00000m  489.0380m 
  332.00000m  489.0380m 
  333.00000m  489.0380m 
  334.00000m  489.0380m 
  335.00000m  489.0380m 
  336.00000m  489.0379m 
  337.00000m  489.0379m 
  338.00000m  489.0379m 
  339.00000m  489.0379m 
  340.00000m  489.0379m 
  341.00000m  489.0379m 
  342.00000m  489.0378m 
  343.00000m  489.0378m 
  344.00000m  489.0378m 
  345.00000m  489.0378m 
  346.00000m  489.0378m 
  347.00000m  489.0378m 
  348.00000m  489.0377m 
  349.00000m  489.0377m 
  350.00000m  489.0377m 
  351.00000m  489.0377m 
  352.00000m  489.0377m 
  353.00000m  489.0376m 
  354.00000m  489.0376m 
  355.00000m  489.0376m 
  356.00000m  489.0376m 
  357.00000m  489.0376m 
  358.00000m  489.0376m 
  359.00000m  489.0375m 
  360.00000m  489.0375m 
  361.00000m  489.0375m 
  362.00000m  489.0375m 
  363.00000m  489.0375m 
  364.00000m  489.0374m 
  365.00000m  489.0374m 
  366.00000m  489.0374m 
  367.00000m  489.0374m 
  368.00000m  489.0374m 
  369.00000m  489.0374m 
  370.00000m  489.0373m 
  371.00000m  489.0373m 
  372.00000m  489.0373m 
  373.00000m  489.0373m 
  374.00000m  489.0373m 
  375.00000m  489.0372m 
  376.00000m  489.0372m 
  377.00000m  489.0372m 
  378.00000m  489.0372m 
  379.00000m  489.0372m 
  380.00000m  489.0372m 
  381.00000m  489.0371m 
  382.00000m  489.0371m 
  383.00000m  489.0371m 
  384.00000m  489.0371m 
  385.00000m  489.0371m 
  386.00000m  489.0370m 
  387.00000m  489.0370m 
  388.00000m  489.0370m 
  389.00000m  489.0370m 
  390.00000m  489.0370m 
  391.00000m  489.0370m 
  392.00000m  489.0369m 
  393.00000m  489.0369m 
  394.00000m  489.0369m 
  395.00000m  489.0369m 
  396.00000m  489.0369m 
  397.00000m  489.0368m 
  398.00000m  489.0368m 
  399.00000m  489.0368m 
  400.00000m  489.0368m 
  401.00000m  489.0368m 
  402.00000m  489.0367m 
  403.00000m  489.0367m 
  404.00000m  489.0367m 
  405.00000m  489.0367m 
  406.00000m  489.0367m 
  407.00000m  489.0367m 
  408.00000m  489.0366m 
  409.00000m  489.0366m 
  410.00000m  489.0366m 
  411.00000m  489.0366m 
  412.00000m  489.0366m 
  413.00000m  489.0365m 
  414.00000m  489.0365m 
  415.00000m  489.0365m 
  416.00000m  489.0365m 
  417.00000m  489.0365m 
  418.00000m  489.0364m 
  419.00000m  489.0364m 
  420.00000m  489.0364m 
  421.00000m  489.0364m 
  422.00000m  489.0364m 
  423.00000m  489.0364m 
  424.00000m  489.0363m 
  425.00000m  489.0363m 
  426.00000m  489.0363m 
  427.00000m  489.0363m 
  428.00000m  489.0363m 
  429.00000m  489.0362m 
  430.00000m  489.0362m 
  431.00000m  489.0362m 
  432.00000m  489.0362m 
  433.00000m  489.0362m 
  434.00000m  489.0361m 
  435.00000m  489.0361m 
  436.00000m  489.0361m 
  437.00000m  489.0361m 
  438.00000m  489.0361m 
  439.00000m  489.0361m 
  440.00000m  489.0360m 
  441.00000m  489.0360m 
  442.00000m  489.0360m 
  443.00000m  489.0360m 
  444.00000m  489.0360m 
  445.00000m  489.0359m 
  446.00000m  489.0359m 
  447.00000m  489.0359m 
  448.00000m  489.0359m 
  449.00000m  489.0359m 
  450.00000m  489.0358m 
  451.00000m  489.0358m 
  452.00000m  489.0358m 
  453.00000m  489.0358m 
  454.00000m  489.0358m 
  455.00000m  489.0357m 
  456.00000m  489.0357m 
  457.00000m  489.0357m 
  458.00000m  489.0357m 
  459.00000m  489.0357m 
  460.00000m  489.0356m 
  461.00000m  489.0356m 
  462.00000m  489.0356m 
  463.00000m  489.0356m 
  464.00000m  489.0356m 
  465.00000m  489.0356m 
  466.00000m  489.0355m 
  467.00000m  489.0355m 
  468.00000m  489.0355m 
  469.00000m  489.0355m 
  470.00000m  489.0355m 
  471.00000m  489.0354m 
  472.00000m  489.0354m 
  473.00000m  489.0354m 
  474.00000m  489.0354m 
  475.00000m  489.0354m 
  476.00000m  489.0353m 
  477.00000m  489.0353m 
  478.00000m  489.0353m 
  479.00000m  489.0353m 
  480.00000m  489.0353m 
  481.00000m  489.0352m 
  482.00000m  489.0352m 
  483.00000m  489.0352m 
  484.00000m  489.0352m 
  485.00000m  489.0352m 
  486.00000m  489.0351m 
  487.00000m  489.0351m 
  488.00000m  489.0351m 
  489.00000m  489.0351m 
  490.00000m  489.0351m 
  491.00000m  489.0350m 
  492.00000m  489.0350m 
  493.00000m  489.0350m 
  494.00000m  489.0350m 
  495.00000m  489.0350m 
  496.00000m  489.0349m 
  497.00000m  489.0349m 
  498.00000m  489.0349m 
  499.00000m  489.0349m 
  500.00000m  489.0349m 
  501.00000m  489.0348m 
  502.00000m  489.0348m 
  503.00000m  489.0348m 
  504.00000m  489.0348m 
  505.00000m  489.0348m 
  506.00000m  489.0347m 
  507.00000m  489.0347m 
  508.00000m  489.0347m 
  509.00000m  489.0347m 
  510.00000m  489.0347m 
  511.00000m  489.0346m 
  512.00000m  489.0346m 
  513.00000m  489.0346m 
  514.00000m  489.0346m 
  515.00000m  489.0346m 
  516.00000m  489.0345m 
  517.00000m  489.0345m 
  518.00000m  489.0345m 
  519.00000m  489.0345m 
  520.00000m  489.0345m 
  521.00000m  489.0344m 
  522.00000m  489.0344m 
  523.00000m  489.0344m 
  524.00000m  489.0344m 
  525.00000m  489.0344m 
  526.00000m  489.0343m 
  527.00000m  489.0343m 
  528.00000m  489.0343m 
  529.00000m  489.0343m 
  530.00000m  489.0343m 
  531.00000m  489.0342m 
  532.00000m  489.0342m 
  533.00000m  489.0342m 
  534.00000m  489.0342m 
  535.00000m  489.0342m 
  536.00000m  489.0341m 
  537.00000m  489.0341m 
  538.00000m  489.0341m 
  539.00000m  489.0341m 
  540.00000m  489.0341m 
  541.00000m  489.0340m 
  542.00000m  489.0340m 
  543.00000m  489.0340m 
  544.00000m  489.0340m 
  545.00000m  489.0339m 
  546.00000m  489.0339m 
  547.00000m  489.0339m 
  548.00000m  489.0339m 
  549.00000m  489.0339m 
  550.00000m  489.0338m 
  551.00000m  489.0338m 
  552.00000m  489.0338m 
  553.00000m  489.0338m 
  554.00000m  489.0338m 
  555.00000m  489.0337m 
  556.00000m  489.0337m 
  557.00000m  489.0337m 
  558.00000m  489.0337m 
  559.00000m  489.0337m 
  560.00000m  489.0336m 
  561.00000m  489.0336m 
  562.00000m  489.0336m 
  563.00000m  489.0336m 
  564.00000m  489.0336m 
  565.00000m  489.0335m 
  566.00000m  489.0335m 
  567.00000m  489.0335m 
  568.00000m  489.0335m 
  569.00000m  489.0334m 
  570.00000m  489.0334m 
  571.00000m  489.0334m 
  572.00000m  489.0334m 
  573.00000m  489.0334m 
  574.00000m  489.0333m 
  575.00000m  489.0333m 
  576.00000m  489.0333m 
  577.00000m  489.0333m 
  578.00000m  489.0333m 
  579.00000m  489.0332m 
  580.00000m  489.0332m 
  581.00000m  489.0332m 
  582.00000m  489.0332m 
  583.00000m  489.0332m 
  584.00000m  489.0331m 
  585.00000m  489.0331m 
  586.00000m  489.0331m 
  587.00000m  489.0331m 
  588.00000m  489.0330m 
  589.00000m  489.0330m 
  590.00000m  489.0330m 
  591.00000m  489.0330m 
  592.00000m  489.0330m 
  593.00000m  489.0329m 
  594.00000m  489.0329m 
  595.00000m  489.0329m 
  596.00000m  489.0329m 
  597.00000m  489.0329m 
  598.00000m  489.0328m 
  599.00000m  489.0328m 
  600.00000m  489.0328m 
  601.00000m  489.0328m 
  602.00000m  489.0327m 
  603.00000m  489.0327m 
  604.00000m  489.0327m 
  605.00000m  489.0327m 
  606.00000m  489.0327m 
  607.00000m  489.0326m 
  608.00000m  489.0326m 
  609.00000m  489.0326m 
  610.00000m  489.0326m 
  611.00000m  489.0326m 
  612.00000m  489.0325m 
  613.00000m  489.0325m 
  614.00000m  489.0325m 
  615.00000m  489.0325m 
  616.00000m  489.0324m 
  617.00000m  489.0324m 
  618.00000m  489.0324m 
  619.00000m  489.0324m 
  620.00000m  489.0324m 
  621.00000m  489.0323m 
  622.00000m  489.0323m 
  623.00000m  489.0323m 
  624.00000m  489.0323m 
  625.00000m  489.0323m 
  626.00000m  489.0322m 
  627.00000m  489.0322m 
  628.00000m  489.0322m 
  629.00000m  489.0322m 
  630.00000m  489.0321m 
  631.00000m  489.0321m 
  632.00000m  489.0321m 
  633.00000m  489.0321m 
  634.00000m  489.0321m 
  635.00000m  489.0320m 
  636.00000m  489.0320m 
  637.00000m  489.0320m 
  638.00000m  489.0320m 
  639.00000m  489.0319m 
  640.00000m  489.0319m 
  641.00000m  489.0319m 
  642.00000m  489.0319m 
  643.00000m  489.0319m 
  644.00000m  489.0318m 
  645.00000m  489.0318m 
  646.00000m  489.0318m 
  647.00000m  489.0318m 
  648.00000m  489.0317m 
  649.00000m  489.0317m 
  650.00000m  489.0317m 
  651.00000m  489.0317m 
  652.00000m  489.0317m 
  653.00000m  489.0316m 
  654.00000m  489.0316m 
  655.00000m  489.0316m 
  656.00000m  489.0316m 
  657.00000m  489.0315m 
  658.00000m  489.0315m 
  659.00000m  489.0315m 
  660.00000m  489.0315m 
  661.00000m  489.0315m 
  662.00000m  489.0314m 
  663.00000m  489.0314m 
  664.00000m  489.0314m 
  665.00000m  489.0314m 
  666.00000m  489.0313m 
  667.00000m  489.0313m 
  668.00000m  489.0313m 
  669.00000m  489.0313m 
  670.00000m  489.0313m 
  671.00000m  489.0312m 
  672.00000m  489.0312m 
  673.00000m  489.0312m 
  674.00000m  489.0312m 
  675.00000m  489.0311m 
  676.00000m  489.0311m 
  677.00000m  489.0311m 
  678.00000m  489.0311m 
  679.00000m  489.0311m 
  680.00000m  489.0310m 
  681.00000m  489.0310m 
  682.00000m  489.0310m 
  683.00000m  489.0310m 
  684.00000m  489.0309m 
  685.00000m  489.0309m 
  686.00000m  489.0309m 
  687.00000m  489.0309m 
  688.00000m  489.0309m 
  689.00000m  489.0308m 
  690.00000m  489.0308m 
  691.00000m  489.0308m 
  692.00000m  489.0308m 
  693.00000m  489.0307m 
  694.00000m  489.0307m 
  695.00000m  489.0307m 
  696.00000m  489.0307m 
  697.00000m  489.0306m 
  698.00000m  489.0306m 
  699.00000m  489.0306m 
  700.00000m  489.0306m 
  701.00000m  489.0306m 
  702.00000m  489.0305m 
  703.00000m  489.0305m 
  704.00000m  489.0305m 
  705.00000m  489.0305m 
  706.00000m  489.0304m 
  707.00000m  489.0304m 
  708.00000m  489.0304m 
  709.00000m  489.0304m 
  710.00000m  489.0303m 
  711.00000m  489.0303m 
  712.00000m  489.0303m 
  713.00000m  489.0303m 
  714.00000m  489.0303m 
  715.00000m  489.0302m 
  716.00000m  489.0302m 
  717.00000m  489.0302m 
  718.00000m  489.0302m 
  719.00000m  489.0301m 
  720.00000m  489.0301m 
  721.00000m  489.0301m 
  722.00000m  489.0301m 
  723.00000m  489.0300m 
  724.00000m  489.0300m 
  725.00000m  489.0300m 
  726.00000m  489.0300m 
  727.00000m  489.0300m 
  728.00000m  489.0299m 
  729.00000m  489.0299m 
  730.00000m  489.0299m 
  731.00000m  489.0299m 
  732.00000m  489.0298m 
  733.00000m  489.0298m 
  734.00000m  489.0298m 
  735.00000m  489.0298m 
  736.00000m  489.0297m 
  737.00000m  489.0297m 
  738.00000m  489.0297m 
  739.00000m  489.0297m 
  740.00000m  489.0297m 
  741.00000m  489.0296m 
  742.00000m  489.0296m 
  743.00000m  489.0296m 
  744.00000m  489.0296m 
  745.00000m  489.0295m 
  746.00000m  489.0295m 
  747.00000m  489.0295m 
  748.00000m  489.0295m 
  749.00000m  489.0294m 
  750.00000m  489.0294m 
  751.00000m  489.0294m 
  752.00000m  489.0294m 
  753.00000m  489.0293m 
  754.00000m  489.0293m 
  755.00000m  489.0293m 
  756.00000m  489.0293m 
  757.00000m  489.0292m 
  758.00000m  489.0292m 
  759.00000m  489.0292m 
  760.00000m  489.0292m 
  761.00000m  489.0292m 
  762.00000m  489.0291m 
  763.00000m  489.0291m 
  764.00000m  489.0291m 
  765.00000m  489.0291m 
  766.00000m  489.0290m 
  767.00000m  489.0290m 
  768.00000m  489.0290m 
  769.00000m  489.0290m 
  770.00000m  489.0289m 
  771.00000m  489.0289m 
  772.00000m  489.0289m 
  773.00000m  489.0289m 
  774.00000m  489.0288m 
  775.00000m  489.0288m 
  776.00000m  489.0288m 
  777.00000m  489.0288m 
  778.00000m  489.0287m 
  779.00000m  489.0287m 
  780.00000m  489.0287m 
  781.00000m  489.0287m 
  782.00000m  489.0287m 
  783.00000m  489.0286m 
  784.00000m  489.0286m 
  785.00000m  489.0286m 
  786.00000m  489.0286m 
  787.00000m  489.0285m 
  788.00000m  489.0285m 
  789.00000m  489.0285m 
  790.00000m  489.0285m 
  791.00000m  489.0284m 
  792.00000m  489.0284m 
  793.00000m  489.0284m 
  794.00000m  489.0284m 
  795.00000m  489.0283m 
  796.00000m  489.0283m 
  797.00000m  489.0283m 
  798.00000m  489.0283m 
  799.00000m  489.0282m 
  800.00000m  489.0282m 
  801.00000m  489.0282m 
  802.00000m  489.0282m 
  803.00000m  489.0281m 
  804.00000m  489.0281m 
  805.00000m  489.0281m 
  806.00000m  489.0281m 
  807.00000m  489.0280m 
  808.00000m  489.0280m 
  809.00000m  489.0280m 
  810.00000m  489.0280m 
  811.00000m  489.0279m 
  812.00000m  489.0279m 
  813.00000m  489.0279m 
  814.00000m  489.0279m 
  815.00000m  489.0278m 
  816.00000m  489.0278m 
  817.00000m  489.0278m 
  818.00000m  489.0278m 
  819.00000m  489.0277m 
  820.00000m  489.0277m 
  821.00000m  489.0277m 
  822.00000m  489.0277m 
  823.00000m  489.0277m 
  824.00000m  489.0276m 
  825.00000m  489.0276m 
  826.00000m  489.0276m 
  827.00000m  489.0276m 
  828.00000m  489.0275m 
  829.00000m  489.0275m 
  830.00000m  489.0275m 
  831.00000m  489.0275m 
  832.00000m  489.0274m 
  833.00000m  489.0274m 
  834.00000m  489.0274m 
  835.00000m  489.0274m 
  836.00000m  489.0273m 
  837.00000m  489.0273m 
  838.00000m  489.0273m 
  839.00000m  489.0273m 
  840.00000m  489.0272m 
  841.00000m  489.0272m 
  842.00000m  489.0272m 
  843.00000m  489.0272m 
  844.00000m  489.0271m 
  845.00000m  489.0271m 
  846.00000m  489.0271m 
  847.00000m  489.0271m 
  848.00000m  489.0270m 
  849.00000m  489.0270m 
  850.00000m  489.0270m 
  851.00000m  489.0270m 
  852.00000m  489.0269m 
  853.00000m  489.0269m 
  854.00000m  489.0269m 
  855.00000m  489.0269m 
  856.00000m  489.0268m 
  857.00000m  489.0268m 
  858.00000m  489.0268m 
  859.00000m  489.0268m 
  860.00000m  489.0267m 
  861.00000m  489.0267m 
  862.00000m  489.0267m 
  863.00000m  489.0267m 
  864.00000m  489.0266m 
  865.00000m  489.0266m 
  866.00000m  489.0266m 
  867.00000m  489.0266m 
  868.00000m  489.0265m 
  869.00000m  489.0265m 
  870.00000m  489.0265m 
  871.00000m  489.0264m 
  872.00000m  489.0264m 
  873.00000m  489.0264m 
  874.00000m  489.0264m 
  875.00000m  489.0263m 
  876.00000m  489.0263m 
  877.00000m  489.0263m 
  878.00000m  489.0263m 
  879.00000m  489.0262m 
  880.00000m  489.0262m 
  881.00000m  489.0262m 
  882.00000m  489.0262m 
  883.00000m  489.0261m 
  884.00000m  489.0261m 
  885.00000m  489.0261m 
  886.00000m  489.0261m 
  887.00000m  489.0260m 
  888.00000m  489.0260m 
  889.00000m  489.0260m 
  890.00000m  489.0260m 
  891.00000m  489.0259m 
  892.00000m  489.0259m 
  893.00000m  489.0259m 
  894.00000m  489.0259m 
  895.00000m  489.0258m 
  896.00000m  489.0258m 
  897.00000m  489.0258m 
  898.00000m  489.0258m 
  899.00000m  489.0257m 
  900.00000m  489.0257m 
  901.00000m  489.0257m 
  902.00000m  489.0257m 
  903.00000m  489.0256m 
  904.00000m  489.0256m 
  905.00000m  489.0256m 
  906.00000m  489.0256m 
  907.00000m  489.0255m 
  908.00000m  489.0255m 
  909.00000m  489.0255m 
  910.00000m  489.0255m 
  911.00000m  489.0254m 
  912.00000m  489.0254m 
  913.00000m  489.0254m 
  914.00000m  489.0253m 
  915.00000m  489.0253m 
  916.00000m  489.0253m 
  917.00000m  489.0253m 
  918.00000m  489.0252m 
  919.00000m  489.0252m 
  920.00000m  489.0252m 
  921.00000m  489.0252m 
  922.00000m  489.0251m 
  923.00000m  489.0251m 
  924.00000m  489.0251m 
  925.00000m  489.0251m 
  926.00000m  489.0250m 
  927.00000m  489.0250m 
  928.00000m  489.0250m 
  929.00000m  489.0250m 
  930.00000m  489.0249m 
  931.00000m  489.0249m 
  932.00000m  489.0249m 
  933.00000m  489.0249m 
  934.00000m  489.0248m 
  935.00000m  489.0248m 
  936.00000m  489.0248m 
  937.00000m  489.0247m 
  938.00000m  489.0247m 
  939.00000m  489.0247m 
  940.00000m  489.0247m 
  941.00000m  489.0246m 
  942.00000m  489.0246m 
  943.00000m  489.0246m 
  944.00000m  489.0246m 
  945.00000m  489.0245m 
  946.00000m  489.0245m 
  947.00000m  489.0245m 
  948.00000m  489.0245m 
  949.00000m  489.0244m 
  950.00000m  489.0244m 
  951.00000m  489.0244m 
  952.00000m  489.0244m 
  953.00000m  489.0243m 
  954.00000m  489.0243m 
  955.00000m  489.0243m 
  956.00000m  489.0242m 
  957.00000m  489.0242m 
  958.00000m  489.0242m 
  959.00000m  489.0242m 
  960.00000m  489.0241m 
  961.00000m  489.0241m 
  962.00000m  489.0241m 
  963.00000m  489.0241m 
  964.00000m  489.0240m 
  965.00000m  489.0240m 
  966.00000m  489.0240m 
  967.00000m  489.0240m 
  968.00000m  489.0239m 
  969.00000m  489.0239m 
  970.00000m  489.0239m 
  971.00000m  489.0239m 
  972.00000m  489.0238m 
  973.00000m  489.0238m 
  974.00000m  489.0238m 
  975.00000m  489.0237m 
  976.00000m  489.0237m 
  977.00000m  489.0237m 
  978.00000m  489.0237m 
  979.00000m  489.0236m 
  980.00000m  489.0236m 
  981.00000m  489.0236m 
  982.00000m  489.0236m 
  983.00000m  489.0235m 
  984.00000m  489.0235m 
  985.00000m  489.0235m 
  986.00000m  489.0235m 
  987.00000m  489.0234m 
  988.00000m  489.0234m 
  989.00000m  489.0234m 
  990.00000m  489.0234m 
  991.00000m  489.0233m 
  992.00000m  489.0233m 
  993.00000m  489.0233m 
  994.00000m  489.0232m 
  995.00000m  489.0232m 
  996.00000m  489.0232m 
  997.00000m  489.0232m 
  998.00000m  489.0231m 
  999.00000m  489.0231m 
    1.00000   489.0231m 
    1.00100   489.0231m 
    1.00200   489.0230m 
    1.00300   489.0230m 
    1.00400   489.0230m 
    1.00500   489.0230m 
    1.00600   489.0229m 
    1.00700   489.0229m 
    1.00800   489.0229m 
    1.00900   489.0228m 
    1.01000   489.0228m 
    1.01100   489.0228m 
    1.01200   489.0228m 
    1.01300   489.0227m 
    1.01400   489.0227m 
    1.01500   489.0227m 
    1.01600   489.0227m 
    1.01700   489.0226m 
    1.01800   489.0226m 
    1.01900   489.0226m 
    1.02000   489.0226m 
    1.02100   489.0225m 
    1.02200   489.0225m 
    1.02300   489.0225m 
    1.02400   489.0224m 
    1.02500   489.0224m 
    1.02600   489.0224m 
    1.02700   489.0224m 
    1.02800   489.0223m 
    1.02900   489.0223m 
    1.03000   489.0223m 
    1.03100   489.0223m 
    1.03200   489.0222m 
    1.03300   489.0222m 
    1.03400   489.0222m 
    1.03500   489.0222m 
    1.03600   489.0221m 
    1.03700   489.0221m 
    1.03800   489.0221m 
    1.03900   489.0221m 
    1.04000   489.0220m 
    1.04100   489.0220m 
    1.04200   489.0220m 
    1.04300   489.0219m 
    1.04400   489.0219m 
    1.04500   489.0219m 
    1.04600   489.0219m 
    1.04700   489.0218m 
    1.04800   489.0218m 
    1.04900   489.0218m 
    1.05000   489.0218m 
    1.05100   489.0217m 
    1.05200   489.0217m 
    1.05300   489.0217m 
    1.05400   489.0217m 
    1.05500   489.0216m 
    1.05600   489.0216m 
    1.05700   489.0216m 
    1.05800   489.0216m 
    1.05900   489.0215m 
    1.06000   489.0215m 
    1.06100   489.0215m 
    1.06200   489.0214m 
    1.06300   489.0214m 
    1.06400   489.0214m 
    1.06500   489.0214m 
    1.06600   489.0213m 
    1.06700   489.0213m 
    1.06800   489.0213m 
    1.06900   489.0213m 
    1.07000   489.0212m 
    1.07100   489.0212m 
    1.07200   489.0212m 
    1.07300   489.0212m 
    1.07400   489.0211m 
    1.07500   489.0211m 
    1.07600   489.0211m 
    1.07700   489.0211m 
    1.07800   489.0210m 
    1.07900   489.0210m 
    1.08000   489.0210m 
    1.08100   489.0210m 
    1.08200   489.0209m 
    1.08300   489.0209m 
    1.08400   489.0209m 
    1.08500   489.0209m 
    1.08600   489.0208m 
    1.08700   489.0208m 
    1.08800   489.0208m 
    1.08900   489.0208m 
    1.09000   489.0207m 
    1.09100   489.0207m 
    1.09200   489.0207m 
    1.09300   489.0207m 
    1.09400   489.0206m 
    1.09500   489.0206m 
    1.09600   489.0206m 
    1.09700   489.0206m 
    1.09800   489.0205m 
    1.09900   489.0205m 
    1.10000   489.0205m 
    1.10100   489.0205m 
    1.10200   489.0204m 
    1.10300   489.0204m 
    1.10400   489.0204m 
    1.10500   489.0204m 
    1.10600   489.0203m 
    1.10700   489.0203m 
    1.10800   489.0203m 
    1.10900   489.0203m 
    1.11000   489.0202m 
    1.11100   489.0202m 
    1.11200   489.0202m 
    1.11300   489.0202m 
    1.11400   489.0201m 
    1.11500   489.0201m 
    1.11600   489.0201m 
    1.11700   489.0201m 
    1.11800   489.0200m 
    1.11900   489.0200m 
    1.12000   489.0200m 
    1.12100   489.0200m 
    1.12200   489.0200m 
    1.12300   489.0199m 
    1.12400   489.0199m 
    1.12500   489.0199m 
    1.12600   489.0199m 
    1.12700   489.0198m 
    1.12800   489.0198m 
    1.12900   489.0198m 
    1.13000   489.0198m 
    1.13100   489.0197m 
    1.13200   489.0197m 
    1.13300   489.0197m 
    1.13400   489.0197m 
    1.13500   489.0197m 
    1.13600   489.0196m 
    1.13700   489.0196m 
    1.13800   489.0196m 
    1.13900   489.0196m 
    1.14000   489.0195m 
    1.14100   489.0195m 
    1.14200   489.0195m 
    1.14300   489.0195m 
    1.14400   489.0195m 
    1.14500   489.0194m 
    1.14600   489.0194m 
    1.14700   489.0194m 
    1.14800   489.0194m 
    1.14900   489.0193m 
    1.15000   489.0193m 
    1.15100   489.0193m 
    1.15200   489.0193m 
    1.15300   489.0193m 
    1.15400   489.0192m 
    1.15500   489.0192m 
    1.15600   489.0192m 
    1.15700   489.0192m 
    1.15800   489.0192m 
    1.15900   489.0191m 
    1.16000   489.0191m 
    1.16100   489.0191m 
    1.16200   489.0191m 
    1.16300   489.0191m 
    1.16400   489.0190m 
    1.16500   489.0190m 
    1.16600   489.0190m 
    1.16700   489.0190m 
    1.16800   489.0190m 
    1.16900   489.0189m 
    1.17000   489.0189m 
    1.17100   489.0189m 
    1.17200   489.0189m 
    1.17300   489.0189m 
    1.17400   489.0188m 
    1.17500   489.0188m 
    1.17600   489.0188m 
    1.17700   489.0188m 
    1.17800   489.0188m 
    1.17900   489.0187m 
    1.18000   489.0187m 
    1.18100   489.0187m 
    1.18200   489.0187m 
    1.18300   489.0187m 
    1.18400   489.0187m 
    1.18500   489.0186m 
    1.18600   489.0186m 
    1.18700   489.0186m 
    1.18800   489.0186m 
    1.18900   489.0186m 
    1.19000   489.0185m 
    1.19100   489.0185m 
    1.19200   489.0185m 
    1.19300   489.0185m 
    1.19400   489.0185m 
    1.19500   489.0185m 
    1.19600   489.0184m 
    1.19700   489.0184m 
    1.19800   489.0184m 
    1.19900   489.0184m 
    1.20000   489.0184m 
    1.20100   489.0184m 
    1.20200   489.0183m 
    1.20300   489.0183m 
    1.20400   489.0183m 
    1.20500   489.0183m 
    1.20600   489.0183m 
    1.20700   489.0183m 
    1.20800   489.0182m 
    1.20900   489.0182m 
    1.21000   489.0182m 
    1.21100   489.0182m 
    1.21200   489.0182m 
    1.21300   489.0182m 
    1.21400   489.0182m 
    1.21500   489.0181m 
    1.21600   489.0181m 
    1.21700   489.0181m 
    1.21800   489.0181m 
    1.21900   489.0181m 
    1.22000   489.0181m 
    1.22100   489.0181m 
    1.22200   489.0180m 
    1.22300   489.0180m 
    1.22400   489.0180m 
    1.22500   489.0180m 
    1.22600   489.0180m 
    1.22700   489.0180m 
    1.22800   489.0180m 
    1.22900   489.0180m 
    1.23000   489.0179m 
    1.23100   489.0179m 
    1.23200   489.0179m 
    1.23300   489.0179m 
    1.23400   489.0179m 
    1.23500   489.0179m 
    1.23600   489.0179m 
    1.23700   489.0179m 
    1.23800   489.0178m 
    1.23900   489.0178m 
    1.24000   489.0178m 
    1.24100   489.0178m 
    1.24200   489.0178m 
    1.24300   489.0178m 
    1.24400   489.0178m 
    1.24500   489.0178m 
    1.24600   489.0177m 
    1.24700   489.0177m 
    1.24800   489.0177m 
    1.24900   489.0177m 
    1.25000   489.0177m 
    1.25100   489.0177m 
    1.25200   489.0177m 
    1.25300   489.0177m 
    1.25400   489.0177m 
    1.25500   489.0177m 
    1.25600   489.0176m 
    1.25700   489.0176m 
    1.25800   489.0176m 
    1.25900   489.0176m 
    1.26000   489.0176m 
    1.26100   489.0176m 
    1.26200   489.0176m 
    1.26300   489.0176m 
    1.26400   489.0176m 
    1.26500   489.0176m 
    1.26600   489.0176m 
    1.26700   489.0175m 
    1.26800   489.0175m 
    1.26900   489.0175m 
    1.27000   489.0175m 
    1.27100   489.0175m 
    1.27200   489.0175m 
    1.27300   489.0175m 
    1.27400   489.0175m 
    1.27500   489.0175m 
    1.27600   489.0175m 
    1.27700   489.0175m 
    1.27800   489.0175m 
    1.27900   489.0174m 
    1.28000   489.0174m 
    1.28100   489.0174m 
    1.28200   489.0174m 
    1.28300   489.0174m 
    1.28400   489.0174m 
    1.28500   489.0174m 
    1.28600   489.0174m 
    1.28700   489.0174m 
    1.28800   489.0174m 
    1.28900   489.0174m 
    1.29000   489.0174m 
    1.29100   489.0174m 
    1.29200   489.0174m 
    1.29300   489.0174m 
    1.29400   489.0173m 
    1.29500   489.0173m 
    1.29600   489.0173m 
    1.29700   489.0173m 
    1.29800   489.0173m 
    1.29900   489.0173m 
    1.30000   489.0173m 
    1.30100   489.0173m 
    1.30200   489.0173m 
    1.30300   489.0173m 
    1.30400   489.0173m 
    1.30500   489.0173m 
    1.30600   489.0173m 
    1.30700   489.0173m 
    1.30800   489.0173m 
    1.30900   489.0173m 
    1.31000   489.0173m 
    1.31100   489.0173m 
    1.31200   489.0172m 
    1.31300   489.0172m 
    1.31400   489.0172m 
    1.31500   489.0172m 
    1.31600   489.0172m 
    1.31700   489.0172m 
    1.31800   489.0172m 
    1.31900   489.0172m 
    1.32000   489.0172m 
    1.32100   489.0172m 
    1.32200   489.0172m 
    1.32300   489.0172m 
    1.32400   489.0172m 
    1.32500   489.0172m 
    1.32600   489.0172m 
    1.32700   489.0172m 
    1.32800   489.0172m 
    1.32900   489.0172m 
    1.33000   489.0172m 
    1.33100   489.0172m 
    1.33200   489.0172m 
    1.33300   489.0172m 
    1.33400   489.0172m 
    1.33500   489.0172m 
    1.33600   489.0172m 
    1.33700   489.0172m 
    1.33800   489.0172m 
    1.33900   489.0171m 
    1.34000   489.0171m 
    1.34100   489.0171m 
    1.34200   489.0171m 
    1.34300   489.0171m 
    1.34400   489.0171m 
    1.34500   489.0171m 
    1.34600   489.0171m 
    1.34700   489.0171m 
    1.34800   489.0171m 
    1.34900   489.0171m 
    1.35000   489.0171m 
    1.35100   489.0171m 
    1.35200   489.0171m 
    1.35300   489.0171m 
    1.35400   489.0171m 
    1.35500   489.0171m 
    1.35600   489.0171m 
    1.35700   489.0171m 
    1.35800   489.0171m 
    1.35900   489.0171m 
    1.36000   489.0171m 
    1.36100   489.0171m 
    1.36200   489.0171m 
    1.36300   489.0171m 
    1.36400   489.0171m 
    1.36500   489.0171m 
    1.36600   489.0171m 
    1.36700   489.0171m 
    1.36800   489.0171m 
    1.36900   489.0171m 
    1.37000   489.0171m 
    1.37100   489.0171m 
    1.37200   489.0171m 
    1.37300   489.0171m 
    1.37400   489.0171m 
    1.37500   489.0171m 
    1.37600   489.0171m 
    1.37700   489.0171m 
    1.37800   489.0171m 
    1.37900   489.0171m 
    1.38000   489.0171m 
    1.38100   489.0171m 
    1.38200   489.0171m 
    1.38300   489.0171m 
    1.38400   489.0171m 
    1.38500   489.0171m 
    1.38600   489.0171m 
    1.38700   489.0171m 
    1.38800   489.0171m 
    1.38900   489.0171m 
    1.39000   489.0171m 
    1.39100   489.0171m 
    1.39200   489.0171m 
    1.39300   489.0171m 
    1.39400   489.0170m 
    1.39500   489.0170m 
    1.39600   489.0170m 
    1.39700   489.0170m 
    1.39800   489.0170m 
    1.39900   489.0170m 
    1.40000   489.0170m 
    1.40100   489.0170m 
    1.40200   489.0170m 
    1.40300   489.0170m 
    1.40400   489.0170m 
    1.40500   489.0170m 
    1.40600   489.0170m 
    1.40700   489.0170m 
    1.40800   489.0170m 
    1.40900   489.0170m 
    1.41000   489.0170m 
    1.41100   489.0170m 
    1.41200   489.0170m 
    1.41300   489.0170m 
    1.41400   489.0170m 
    1.41500   489.0170m 
    1.41600   489.0170m 
    1.41700   489.0170m 
    1.41800   489.0170m 
    1.41900   489.0170m 
    1.42000   489.0170m 
    1.42100   489.0170m 
    1.42200   489.0170m 
    1.42300   489.0170m 
    1.42400   489.0170m 
    1.42500   489.0170m 
    1.42600   489.0170m 
    1.42700   489.0170m 
    1.42800   489.0170m 
    1.42900   489.0170m 
    1.43000   489.0170m 
    1.43100   489.0170m 
    1.43200   489.0170m 
    1.43300   489.0170m 
    1.43400   489.0170m 
    1.43500   489.0170m 
    1.43600   489.0170m 
    1.43700   489.0170m 
    1.43800   489.0170m 
    1.43900   489.0170m 
    1.44000   489.0170m 
    1.44100   489.0170m 
    1.44200   489.0170m 
    1.44300   489.0170m 
    1.44400   489.0170m 
    1.44500   489.0170m 
    1.44600   489.0170m 
    1.44700   489.0170m 
    1.44800   489.0170m 
    1.44900   489.0170m 
    1.45000   489.0170m 
    1.45100   489.0170m 
    1.45200   489.0170m 
    1.45300   489.0170m 
    1.45400   489.0170m 
    1.45500   489.0170m 
    1.45600   489.0170m 
    1.45700   489.0170m 
    1.45800   489.0170m 
    1.45900   489.0170m 
    1.46000   489.0170m 
    1.46100   489.0170m 
    1.46200   489.0170m 
    1.46300   489.0170m 
    1.46400   489.0170m 
    1.46500   489.0170m 
    1.46600   489.0170m 
    1.46700   489.0170m 
    1.46800   489.0170m 
    1.46900   489.0170m 
    1.47000   489.0170m 
    1.47100   489.0170m 
    1.47200   489.0170m 
    1.47300   489.0170m 
    1.47400   489.0170m 
    1.47500   489.0170m 
    1.47600   489.0170m 
    1.47700   489.0170m 
    1.47800   489.0170m 
    1.47900   489.0170m 
    1.48000   489.0170m 
    1.48100   489.0170m 
    1.48200   489.0170m 
    1.48300   489.0170m 
    1.48400   489.0170m 
    1.48500   489.0170m 
    1.48600   489.0170m 
    1.48700   489.0170m 
    1.48800   489.0170m 
    1.48900   489.0170m 
    1.49000   489.0170m 
    1.49100   489.0170m 
    1.49200   489.0170m 
    1.49300   489.0170m 
    1.49400   489.0170m 
    1.49500   489.0170m 
    1.49600   489.0170m 
    1.49700   489.0170m 
    1.49800   489.0170m 
    1.49900   489.0170m 
    1.50000   489.0170m 
    1.50100   489.0170m 
    1.50200   489.0170m 
    1.50300   489.0170m 
    1.50400   489.0170m 
    1.50500   489.0170m 
    1.50600   489.0170m 
    1.50700   489.0170m 
    1.50800   489.0170m 
    1.50900   489.0170m 
    1.51000   489.0170m 
    1.51100   489.0170m 
    1.51200   489.0170m 
    1.51300   489.0170m 
    1.51400   489.0170m 
    1.51500   489.0170m 
    1.51600   489.0170m 
    1.51700   489.0170m 
    1.51800   489.0170m 
    1.51900   489.0170m 
    1.52000   489.0170m 
    1.52100   489.0170m 
    1.52200   489.0170m 
    1.52300   489.0170m 
    1.52400   489.0170m 
    1.52500   489.0170m 
    1.52600   489.0170m 
    1.52700   489.0170m 
    1.52800   489.0170m 
    1.52900   489.0170m 
    1.53000   489.0170m 
    1.53100   489.0170m 
    1.53200   489.0170m 
    1.53300   489.0170m 
    1.53400   489.0170m 
    1.53500   489.0170m 
    1.53600   489.0170m 
    1.53700   489.0170m 
    1.53800   489.0170m 
    1.53900   489.0170m 
    1.54000   489.0170m 
    1.54100   489.0170m 
    1.54200   489.0170m 
    1.54300   489.0170m 
    1.54400   489.0170m 
    1.54500   489.0170m 
    1.54600   489.0170m 
    1.54700   489.0170m 
    1.54800   489.0170m 
    1.54900   489.0170m 
    1.55000   489.0170m 
    1.55100   489.0170m 
    1.55200   489.0170m 
    1.55300   489.0170m 
    1.55400   489.0170m 
    1.55500   489.0170m 
    1.55600   489.0170m 
    1.55700   489.0170m 
    1.55800   489.0170m 
    1.55900   489.0170m 
    1.56000   489.0170m 
    1.56100   489.0170m 
    1.56200   489.0170m 
    1.56300   489.0170m 
    1.56400   489.0170m 
    1.56500   489.0170m 
    1.56600   489.0170m 
    1.56700   489.0170m 
    1.56800   489.0170m 
    1.56900   489.0170m 
    1.57000   489.0170m 
    1.57100   489.0170m 
    1.57200   489.0170m 
    1.57300   489.0170m 
    1.57400   489.0170m 
    1.57500   489.0170m 
    1.57600   489.0170m 
    1.57700   489.0170m 
    1.57800   489.0170m 
    1.57900   489.0170m 
    1.58000   489.0170m 
    1.58100   489.0170m 
    1.58200   489.0170m 
    1.58300   489.0170m 
    1.58400   489.0170m 
    1.58500   489.0170m 
    1.58600   489.0170m 
    1.58700   489.0170m 
    1.58800   489.0170m 
    1.58900   489.0170m 
    1.59000   489.0170m 
    1.59100   489.0170m 
    1.59200   489.0170m 
    1.59300   489.0170m 
    1.59400   489.0170m 
    1.59500   489.0170m 
    1.59600   489.0170m 
    1.59700   489.0170m 
    1.59800   489.0170m 
    1.59900   489.0170m 
    1.60000   489.0170m 
    1.60100   489.0170m 
    1.60200   489.0170m 
    1.60300   489.0170m 
    1.60400   489.0170m 
    1.60500   489.0170m 
    1.60600   489.0170m 
    1.60700   489.0170m 
    1.60800   489.0170m 
    1.60900   489.0170m 
    1.61000   489.0170m 
    1.61100   489.0170m 
    1.61200   489.0170m 
    1.61300   489.0170m 
    1.61400   489.0170m 
    1.61500   489.0170m 
    1.61600   489.0170m 
    1.61700   489.0170m 
    1.61800   489.0170m 
    1.61900   489.0170m 
    1.62000   489.0170m 
    1.62100   489.0170m 
    1.62200   489.0170m 
    1.62300   489.0170m 
    1.62400   489.0170m 
    1.62500   489.0170m 
    1.62600   489.0170m 
    1.62700   489.0170m 
    1.62800   489.0170m 
    1.62900   489.0170m 
    1.63000   489.0170m 
    1.63100   489.0170m 
    1.63200   489.0170m 
    1.63300   489.0170m 
    1.63400   489.0170m 
    1.63500   489.0170m 
    1.63600   489.0170m 
    1.63700   489.0170m 
    1.63800   489.0170m 
    1.63900   489.0170m 
    1.64000   489.0170m 
    1.64100   489.0170m 
    1.64200   489.0170m 
    1.64300   489.0170m 
    1.64400   489.0170m 
    1.64500   489.0170m 
    1.64600   489.0170m 
    1.64700   489.0170m 
    1.64800   489.0170m 
    1.64900   489.0170m 
    1.65000   489.0170m 
    1.65100   489.0170m 
    1.65200   489.0170m 
    1.65300   489.0170m 
    1.65400   489.0170m 
    1.65500   489.0170m 
    1.65600   489.0170m 
    1.65700   489.0170m 
    1.65800   489.0170m 
    1.65900   489.0170m 
    1.66000   489.0170m 
    1.66100   489.0170m 
    1.66200   489.0170m 
    1.66300   489.0170m 
    1.66400   489.0170m 
    1.66500   489.0170m 
    1.66600   489.0170m 
    1.66700   489.0170m 
    1.66800   489.0170m 
    1.66900   489.0170m 
    1.67000   489.0170m 
    1.67100   489.0170m 
    1.67200   489.0170m 
    1.67300   489.0170m 
    1.67400   489.0170m 
    1.67500   489.0170m 
    1.67600   489.0170m 
    1.67700   489.0170m 
    1.67800   489.0170m 
    1.67900   489.0170m 
    1.68000   489.0170m 
    1.68100   489.0170m 
    1.68200   489.0170m 
    1.68300   489.0170m 
    1.68400   489.0170m 
    1.68500   489.0170m 
    1.68600   489.0170m 
    1.68700   489.0170m 
    1.68800   489.0170m 
    1.68900   489.0170m 
    1.69000   489.0170m 
    1.69100   489.0170m 
    1.69200   489.0170m 
    1.69300   489.0170m 
    1.69400   489.0170m 
    1.69500   489.0170m 
    1.69600   489.0170m 
    1.69700   489.0170m 
    1.69800   489.0170m 
    1.69900   489.0170m 
    1.70000   489.0170m 
    1.70100   489.0170m 
    1.70200   489.0170m 
    1.70300   489.0170m 
    1.70400   489.0170m 
    1.70500   489.0170m 
    1.70600   489.0170m 
    1.70700   489.0170m 
    1.70800   489.0170m 
    1.70900   489.0170m 
    1.71000   489.0170m 
    1.71100   489.0170m 
    1.71200   489.0170m 
    1.71300   489.0170m 
    1.71400   489.0170m 
    1.71500   489.0170m 
    1.71600   489.0170m 
    1.71700   489.0170m 
    1.71800   489.0170m 
    1.71900   489.0170m 
    1.72000   489.0170m 
    1.72100   489.0170m 
    1.72200   489.0170m 
    1.72300   489.0170m 
    1.72400   489.0170m 
    1.72500   489.0170m 
    1.72600   489.0170m 
    1.72700   489.0170m 
    1.72800   489.0170m 
    1.72900   489.0170m 
    1.73000   489.0170m 
    1.73100   489.0170m 
    1.73200   489.0170m 
    1.73300   489.0170m 
    1.73400   489.0170m 
    1.73500   489.0170m 
    1.73600   489.0170m 
    1.73700   489.0170m 
    1.73800   489.0170m 
    1.73900   489.0170m 
    1.74000   489.0170m 
    1.74100   489.0170m 
    1.74200   489.0170m 
    1.74300   489.0170m 
    1.74400   489.0170m 
    1.74500   489.0170m 
    1.74600   489.0170m 
    1.74700   489.0170m 
    1.74800   489.0170m 
    1.74900   489.0170m 
    1.75000   489.0170m 
    1.75100   489.0170m 
    1.75200   489.0170m 
    1.75300   489.0170m 
    1.75400   489.0170m 
    1.75500   489.0170m 
    1.75600   489.0170m 
    1.75700   489.0170m 
    1.75800   489.0170m 
    1.75900   489.0170m 
    1.76000   489.0170m 
    1.76100   489.0170m 
    1.76200   489.0170m 
    1.76300   489.0170m 
    1.76400   489.0170m 
    1.76500   489.0170m 
    1.76600   489.0170m 
    1.76700   489.0170m 
    1.76800   489.0170m 
    1.76900   489.0170m 
    1.77000   489.0170m 
    1.77100   489.0170m 
    1.77200   489.0170m 
    1.77300   489.0170m 
    1.77400   489.0170m 
    1.77500   489.0170m 
    1.77600   489.0170m 
    1.77700   489.0170m 
    1.77800   489.0170m 
    1.77900   489.0170m 
    1.78000   489.0170m 
    1.78100   489.0170m 
    1.78200   489.0170m 
    1.78300   489.0170m 
    1.78400   489.0170m 
    1.78500   489.0170m 
    1.78600   489.0170m 
    1.78700   489.0170m 
    1.78800   489.0170m 
    1.78900   489.0170m 
    1.79000   489.0170m 
    1.79100   489.0170m 
    1.79200   489.0170m 
    1.79300   489.0170m 
    1.79400   489.0170m 
    1.79500   489.0170m 
    1.79600   489.0170m 
    1.79700   489.0170m 
    1.79800   489.0170m 
    1.79900   489.0170m 
    1.80000   489.0170m 
y

          ***** job concluded
1****** HSPICE -- O-2018.09-SP2 win64 (Feb 25 2019) ******                      
 ******  
 * .param vdd = 1 vgs = 1 ln = 0.05u lp = 0.05u wn = 1u wp = 0.5u

 ****** job statistics summary tnom=  25.000 temp=  25.000 ******

  ******  HSPICE Threads Information  ******

  Command Line Threads Count :     1
  Available CPU Count        :     8
  Actual Threads Count       :     1


  ******  Circuit Statistics  ******
  # nodes       =       9 # elements   =       6
  # resistors   =       0 # capacitors =       0 # inductors   =       0
  # mutual_inds =       0 # vccs       =       0 # vcvs        =       0
  # cccs        =       0 # ccvs       =       0 # volt_srcs   =       4
  # curr_srcs   =       0 # diodes     =       0 # bjts        =       0
  # jfets       =       0 # mosfets    =       2 # U elements  =       0
  # T elements  =       0 # W elements =       0 # B elements  =       0
  # S elements  =       0 # P elements =       0 # va device   =       0
  # vector_srcs =       0 # N elements =       0


  ******  Runtime Statistics (seconds)  ******

  analysis           time    # points   tot. iter  conv.iter
  op point           0.00           1           0
  dc sweep           0.09        1801        3604
  readin             0.05
  errchk             0.01
  setup              0.00
  output             0.00


           peak memory used         64.34 megabytes
           total cpu time            0.17 seconds
           total elapsed time        0.19 seconds
           job started at     16:12:21 11/16/2021
           job ended   at     16:12:21 11/16/2021


  lic: Release hspice token(s) 
 lic: total license checkout elapse time:        0.02(s)
