 ****** HSPICE -- O-2018.09-SP2 win64 (Feb 25 2019) ******                      
  Copyright (c) 1986 - 2021 by Synopsys, Inc. All Rights Reserved.              
  This software and the associated documentation are proprietary
  to Synopsys, Inc. This software may only be used in accordance
  with the terms and conditions of a written license agreement with
  Synopsys, Inc. All other use, reproduction, or distribution of
  this software is strictly prohibited.
  Input File: fakenmosinv@50m.sp                                                
  Command line options: C:\synopsys\Hspice_O-2018.09-SP2\WIN64\hspice.com -i fakenmosinv@50m.sp -o C:\sdsy\case3\fakenmosinv@50m.lis
  Start time: Fri Oct 29 18:20:08 2021
  lic:  
  lic: FLEXlm: SDK_11.7.3 
  lic: USER:   admin                HOSTNAME: DESKTOP-3KO7170 
  lic: HOSTID: "d83bbfb49802"       PID:      11176 
  lic: Using FLEXlm license file: 
  lic: 27000@DESKTOP-3KO7170 
  lic: Checkout 1 hspice 
  lic: License/Maintenance for hspice will expire on 30-dec-2029/2019.2019 
  lic: 1(in_use)/99(total) FLOATING license(s) on SERVER 27000@DESKTOP-3KO7170 
  lic:   
  
      

Element variations(Local):   element              parameter
 *****************************************************************
 ******  option summary
 ******
 runlvl  = 3         bypass  = 2.0000    
 ******
 

 ****** dc transfer curves tnom=  25.000 temp=  25.000 ******
x

 volt         voltage    voltage   
             vin        vout       
    0.          0.       999.9698m 
    1.00000m    1.0000m  999.9693m 
    2.00000m    2.0000m  999.9689m 
    3.00000m    3.0000m  999.9684m 
    4.00000m    4.0000m  999.9679m 
    5.00000m    5.0000m  999.9674m 
    6.00000m    6.0000m  999.9668m 
    7.00000m    7.0000m  999.9663m 
    8.00000m    8.0000m  999.9657m 
    9.00000m    9.0000m  999.9652m 
   10.00000m   10.0000m  999.9646m 
   11.00000m   11.0000m  999.9639m 
   12.00000m   12.0000m  999.9633m 
   13.00000m   13.0000m  999.9626m 
   14.00000m   14.0000m  999.9620m 
   15.00000m   15.0000m  999.9613m 
   16.00000m   16.0000m  999.9605m 
   17.00000m   17.0000m  999.9598m 
   18.00000m   18.0000m  999.9590m 
   19.00000m   19.0000m  999.9582m 
   20.00000m   20.0000m  999.9574m 
   21.00000m   21.0000m  999.9566m 
   22.00000m   22.0000m  999.9557m 
   23.00000m   23.0000m  999.9548m 
   24.00000m   24.0000m  999.9539m 
   25.00000m   25.0000m  999.9529m 
   26.00000m   26.0000m  999.9520m 
   27.00000m   27.0000m  999.9510m 
   28.00000m   28.0000m  999.9499m 
   29.00000m   29.0000m  999.9488m 
   30.00000m   30.0000m  999.9477m 
   31.00000m   31.0000m  999.9466m 
   32.00000m   32.0000m  999.9454m 
   33.00000m   33.0000m  999.9442m 
   34.00000m   34.0000m  999.9430m 
   35.00000m   35.0000m  999.9417m 
   36.00000m   36.0000m  999.9404m 
   37.00000m   37.0000m  999.9390m 
   38.00000m   38.0000m  999.9376m 
   39.00000m   39.0000m  999.9362m 
   40.00000m   40.0000m  999.9347m 
   41.00000m   41.0000m  999.9332m 
   42.00000m   42.0000m  999.9316m 
   43.00000m   43.0000m  999.9300m 
   44.00000m   44.0000m  999.9283m 
   45.00000m   45.0000m  999.9266m 
   46.00000m   46.0000m  999.9248m 
   47.00000m   47.0000m  999.9230m 
   48.00000m   48.0000m  999.9211m 
   49.00000m   49.0000m  999.9191m 
   50.00000m   50.0000m  999.9171m 
   51.00000m   51.0000m  999.9151m 
   52.00000m   52.0000m  999.9130m 
   53.00000m   53.0000m  999.9108m 
   54.00000m   54.0000m  999.9085m 
   55.00000m   55.0000m  999.9062m 
   56.00000m   56.0000m  999.9039m 
   57.00000m   57.0000m  999.9014m 
   58.00000m   58.0000m  999.8989m 
   59.00000m   59.0000m  999.8963m 
   60.00000m   60.0000m  999.8936m 
   61.00000m   61.0000m  999.8909m 
   62.00000m   62.0000m  999.8881m 
   63.00000m   63.0000m  999.8851m 
   64.00000m   64.0000m  999.8821m 
   65.00000m   65.0000m  999.8791m 
   66.00000m   66.0000m  999.8759m 
   67.00000m   67.0000m  999.8726m 
   68.00000m   68.0000m  999.8693m 
   69.00000m   69.0000m  999.8658m 
   70.00000m   70.0000m  999.8622m 
   71.00000m   71.0000m  999.8586m 
   72.00000m   72.0000m  999.8548m 
   73.00000m   73.0000m  999.8509m 
   74.00000m   74.0000m  999.8470m 
   75.00000m   75.0000m  999.8429m 
   76.00000m   76.0000m  999.8386m 
   77.00000m   77.0000m  999.8343m 
   78.00000m   78.0000m  999.8298m 
   79.00000m   79.0000m  999.8252m 
   80.00000m   80.0000m  999.8205m 
   81.00000m   81.0000m  999.8157m 
   82.00000m   82.0000m  999.8107m 
   83.00000m   83.0000m  999.8055m 
   84.00000m   84.0000m  999.8002m 
   85.00000m   85.0000m  999.7948m 
   86.00000m   86.0000m  999.7892m 
   87.00000m   87.0000m  999.7835m 
   88.00000m   88.0000m  999.7775m 
   89.00000m   89.0000m  999.7715m 
   90.00000m   90.0000m  999.7652m 
   91.00000m   91.0000m  999.7588m 
   92.00000m   92.0000m  999.7522m 
   93.00000m   93.0000m  999.7454m 
   94.00000m   94.0000m  999.7384m 
   95.00000m   95.0000m  999.7313m 
   96.00000m   96.0000m  999.7239m 
   97.00000m   97.0000m  999.7163m 
   98.00000m   98.0000m  999.7085m 
   99.00000m   99.0000m  999.7005m 
  100.00000m  100.0000m  999.6923m 
  101.00000m  101.0000m  999.6838m 
  102.00000m  102.0000m  999.6752m 
  103.00000m  103.0000m  999.6662m 
  104.00000m  104.0000m  999.6571m 
  105.00000m  105.0000m  999.6476m 
  106.00000m  106.0000m  999.6380m 
  107.00000m  107.0000m  999.6280m 
  108.00000m  108.0000m  999.6178m 
  109.00000m  109.0000m  999.6073m 
  110.00000m  110.0000m  999.5965m 
  111.00000m  111.0000m  999.5854m 
  112.00000m  112.0000m  999.5741m 
  113.00000m  113.0000m  999.5624m 
  114.00000m  114.0000m  999.5504m 
  115.00000m  115.0000m  999.5381m 
  116.00000m  116.0000m  999.5254m 
  117.00000m  117.0000m  999.5125m 
  118.00000m  118.0000m  999.4991m 
  119.00000m  119.0000m  999.4854m 
  120.00000m  120.0000m  999.4714m 
  121.00000m  121.0000m  999.4569m 
  122.00000m  122.0000m  999.4421m 
  123.00000m  123.0000m  999.4269m 
  124.00000m  124.0000m  999.4113m 
  125.00000m  125.0000m  999.3953m 
  126.00000m  126.0000m  999.3789m 
  127.00000m  127.0000m  999.3620m 
  128.00000m  128.0000m  999.3447m 
  129.00000m  129.0000m  999.3269m 
  130.00000m  130.0000m  999.3087m 
  131.00000m  131.0000m  999.2900m 
  132.00000m  132.0000m  999.2708m 
  133.00000m  133.0000m  999.2511m 
  134.00000m  134.0000m  999.2309m 
  135.00000m  135.0000m  999.2102m 
  136.00000m  136.0000m  999.1890m 
  137.00000m  137.0000m  999.1672m 
  138.00000m  138.0000m  999.1448m 
  139.00000m  139.0000m  999.1219m 
  140.00000m  140.0000m  999.0984m 
  141.00000m  141.0000m  999.0743m 
  142.00000m  142.0000m  999.0496m 
  143.00000m  143.0000m  999.0243m 
  144.00000m  144.0000m  998.9983m 
  145.00000m  145.0000m  998.9716m 
  146.00000m  146.0000m  998.9444m 
  147.00000m  147.0000m  998.9164m 
  148.00000m  148.0000m  998.8877m 
  149.00000m  149.0000m  998.8583m 
  150.00000m  150.0000m  998.8282m 
  151.00000m  151.0000m  998.7973m 
  152.00000m  152.0000m  998.7657m 
  153.00000m  153.0000m  998.7333m 
  154.00000m  154.0000m  998.7000m 
  155.00000m  155.0000m  998.6660m 
  156.00000m  156.0000m  998.6312m 
  157.00000m  157.0000m  998.5955m 
  158.00000m  158.0000m  998.5589m 
  159.00000m  159.0000m  998.5214m 
  160.00000m  160.0000m  998.4831m 
  161.00000m  161.0000m  998.4438m 
  162.00000m  162.0000m  998.4035m 
  163.00000m  163.0000m  998.3623m 
  164.00000m  164.0000m  998.3201m 
  165.00000m  165.0000m  998.2769m 
  166.00000m  166.0000m  998.2327m 
  167.00000m  167.0000m  998.1874m 
  168.00000m  168.0000m  998.1411m 
  169.00000m  169.0000m  998.0937m 
  170.00000m  170.0000m  998.0451m 
  171.00000m  171.0000m  997.9954m 
  172.00000m  172.0000m  997.9446m 
  173.00000m  173.0000m  997.8925m 
  174.00000m  174.0000m  997.8393m 
  175.00000m  175.0000m  997.7848m 
  176.00000m  176.0000m  997.7291m 
  177.00000m  177.0000m  997.6721m 
  178.00000m  178.0000m  997.6137m 
  179.00000m  179.0000m  997.5541m 
  180.00000m  180.0000m  997.4930m 
  181.00000m  181.0000m  997.4306m 
  182.00000m  182.0000m  997.3668m 
  183.00000m  183.0000m  997.3015m 
  184.00000m  184.0000m  997.2348m 
  185.00000m  185.0000m  997.1665m 
  186.00000m  186.0000m  997.0967m 
  187.00000m  187.0000m  997.0254m 
  188.00000m  188.0000m  996.9525m 
  189.00000m  189.0000m  996.8779m 
  190.00000m  190.0000m  996.8017m 
  191.00000m  191.0000m  996.7238m 
  192.00000m  192.0000m  996.6443m 
  193.00000m  193.0000m  996.5629m 
  194.00000m  194.0000m  996.4798m 
  195.00000m  195.0000m  996.3949m 
  196.00000m  196.0000m  996.3081m 
  197.00000m  197.0000m  996.2194m 
  198.00000m  198.0000m  996.1289m 
  199.00000m  199.0000m  996.0364m 
  200.00000m  200.0000m  995.9419m 
  201.00000m  201.0000m  995.8453m 
  202.00000m  202.0000m  995.7468m 
  203.00000m  203.0000m  995.6461m 
  204.00000m  204.0000m  995.5433m 
  205.00000m  205.0000m  995.4383m 
  206.00000m  206.0000m  995.3311m 
  207.00000m  207.0000m  995.2217m 
  208.00000m  208.0000m  995.1100m 
  209.00000m  209.0000m  994.9959m 
  210.00000m  210.0000m  994.8795m 
  211.00000m  211.0000m  994.7607m 
  212.00000m  212.0000m  994.6394m 
  213.00000m  213.0000m  994.5156m 
  214.00000m  214.0000m  994.3893m 
  215.00000m  215.0000m  994.2605m 
  216.00000m  216.0000m  994.1289m 
  217.00000m  217.0000m  993.9948m 
  218.00000m  218.0000m  993.8579m 
  219.00000m  219.0000m  993.7182m 
  220.00000m  220.0000m  993.5757m 
  221.00000m  221.0000m  993.4304m 
  222.00000m  222.0000m  993.2822m 
  223.00000m  223.0000m  993.1310m 
  224.00000m  224.0000m  992.9768m 
  225.00000m  225.0000m  992.8196m 
  226.00000m  226.0000m  992.6593m 
  227.00000m  227.0000m  992.4958m 
  228.00000m  228.0000m  992.3292m 
  229.00000m  229.0000m  992.1592m 
  230.00000m  230.0000m  991.9860m 
  231.00000m  231.0000m  991.8094m 
  232.00000m  232.0000m  991.6294m 
  233.00000m  233.0000m  991.4460m 
  234.00000m  234.0000m  991.2590m 
  235.00000m  235.0000m  991.0685m 
  236.00000m  236.0000m  990.8743m 
  237.00000m  237.0000m  990.6764m 
  238.00000m  238.0000m  990.4748m 
  239.00000m  239.0000m  990.2694m 
  240.00000m  240.0000m  990.0601m 
  241.00000m  241.0000m  989.8469m 
  242.00000m  242.0000m  989.6297m 
  243.00000m  243.0000m  989.4084m 
  244.00000m  244.0000m  989.1831m 
  245.00000m  245.0000m  988.9536m 
  246.00000m  246.0000m  988.7198m 
  247.00000m  247.0000m  988.4818m 
  248.00000m  248.0000m  988.2394m 
  249.00000m  249.0000m  987.9926m 
  250.00000m  250.0000m  987.7413m 
  251.00000m  251.0000m  987.4855m 
  252.00000m  252.0000m  987.2250m 
  253.00000m  253.0000m  986.9599m 
  254.00000m  254.0000m  986.6899m 
  255.00000m  255.0000m  986.4152m 
  256.00000m  256.0000m  986.1356m 
  257.00000m  257.0000m  985.8510m 
  258.00000m  258.0000m  985.5614m 
  259.00000m  259.0000m  985.2666m 
  260.00000m  260.0000m  984.9667m 
  261.00000m  261.0000m  984.6616m 
  262.00000m  262.0000m  984.3511m 
  263.00000m  263.0000m  984.0352m 
  264.00000m  264.0000m  983.7139m 
  265.00000m  265.0000m  983.3870m 
  266.00000m  266.0000m  983.0545m 
  267.00000m  267.0000m  982.7163m 
  268.00000m  268.0000m  982.3723m 
  269.00000m  269.0000m  982.0224m 
  270.00000m  270.0000m  981.6667m 
  271.00000m  271.0000m  981.3049m 
  272.00000m  272.0000m  980.9370m 
  273.00000m  273.0000m  980.5629m 
  274.00000m  274.0000m  980.1826m 
  275.00000m  275.0000m  979.7960m 
  276.00000m  276.0000m  979.4029m 
  277.00000m  277.0000m  979.0034m 
  278.00000m  278.0000m  978.5972m 
  279.00000m  279.0000m  978.1844m 
  280.00000m  280.0000m  977.7649m 
  281.00000m  281.0000m  977.3385m 
  282.00000m  282.0000m  976.9052m 
  283.00000m  283.0000m  976.4649m 
  284.00000m  284.0000m  976.0174m 
  285.00000m  285.0000m  975.5629m 
  286.00000m  286.0000m  975.1010m 
  287.00000m  287.0000m  974.6318m 
  288.00000m  288.0000m  974.1551m 
  289.00000m  289.0000m  973.6709m 
  290.00000m  290.0000m  973.1791m 
  291.00000m  291.0000m  972.6795m 
  292.00000m  292.0000m  972.1722m 
  293.00000m  293.0000m  971.6569m 
  294.00000m  294.0000m  971.1337m 
  295.00000m  295.0000m  970.6024m 
  296.00000m  296.0000m  970.0629m 
  297.00000m  297.0000m  969.5152m 
  298.00000m  298.0000m  968.9591m 
  299.00000m  299.0000m  968.3945m 
  300.00000m  300.0000m  967.8214m 
  301.00000m  301.0000m  967.2396m 
  302.00000m  302.0000m  966.6492m 
  303.00000m  303.0000m  966.0499m 
  304.00000m  304.0000m  965.4416m 
  305.00000m  305.0000m  964.8244m 
  306.00000m  306.0000m  964.1980m 
  307.00000m  307.0000m  963.5624m 
  308.00000m  308.0000m  962.9175m 
  309.00000m  309.0000m  962.2633m 
  310.00000m  310.0000m  961.5995m 
  311.00000m  311.0000m  960.9261m 
  312.00000m  312.0000m  960.2430m 
  313.00000m  313.0000m  959.5501m 
  314.00000m  314.0000m  958.8474m 
  315.00000m  315.0000m  958.1347m 
  316.00000m  316.0000m  957.4118m 
  317.00000m  317.0000m  956.6788m 
  318.00000m  318.0000m  955.9356m 
  319.00000m  319.0000m  955.1819m 
  320.00000m  320.0000m  954.4178m 
  321.00000m  321.0000m  953.6431m 
  322.00000m  322.0000m  952.8578m 
  323.00000m  323.0000m  952.0617m 
  324.00000m  324.0000m  951.2547m 
  325.00000m  325.0000m  950.4368m 
  326.00000m  326.0000m  949.6078m 
  327.00000m  327.0000m  948.7676m 
  328.00000m  328.0000m  947.9163m 
  329.00000m  329.0000m  947.0535m 
  330.00000m  330.0000m  946.1793m 
  331.00000m  331.0000m  945.2936m 
  332.00000m  332.0000m  944.3963m 
  333.00000m  333.0000m  943.4872m 
  334.00000m  334.0000m  942.5663m 
  335.00000m  335.0000m  941.6334m 
  336.00000m  336.0000m  940.6886m 
  337.00000m  337.0000m  939.7316m 
  338.00000m  338.0000m  938.7624m 
  339.00000m  339.0000m  937.7810m 
  340.00000m  340.0000m  936.7871m 
  341.00000m  341.0000m  935.7807m 
  342.00000m  342.0000m  934.7617m 
  343.00000m  343.0000m  933.7301m 
  344.00000m  344.0000m  932.6857m 
  345.00000m  345.0000m  931.6285m 
  346.00000m  346.0000m  930.5584m 
  347.00000m  347.0000m  929.4753m 
  348.00000m  348.0000m  928.3792m 
  349.00000m  349.0000m  927.2699m 
  350.00000m  350.0000m  926.1474m 
  351.00000m  351.0000m  925.0116m 
  352.00000m  352.0000m  923.8623m 
  353.00000m  353.0000m  922.6996m 
  354.00000m  354.0000m  921.5232m 
  355.00000m  355.0000m  920.3332m 
  356.00000m  356.0000m  919.1295m 
  357.00000m  357.0000m  917.9119m 
  358.00000m  358.0000m  916.6803m 
  359.00000m  359.0000m  915.4348m 
  360.00000m  360.0000m  914.1751m 
  361.00000m  361.0000m  912.9013m 
  362.00000m  362.0000m  911.6132m 
  363.00000m  363.0000m  910.3108m 
  364.00000m  364.0000m  908.9939m 
  365.00000m  365.0000m  907.6625m 
  366.00000m  366.0000m  906.3166m 
  367.00000m  367.0000m  904.9559m 
  368.00000m  368.0000m  903.5805m 
  369.00000m  369.0000m  902.1903m 
  370.00000m  370.0000m  900.7851m 
  371.00000m  371.0000m  899.3650m 
  372.00000m  372.0000m  897.9298m 
  373.00000m  373.0000m  896.4794m 
  374.00000m  374.0000m  895.0138m 
  375.00000m  375.0000m  893.5329m 
  376.00000m  376.0000m  892.0366m 
  377.00000m  377.0000m  890.5248m 
  378.00000m  378.0000m  888.9974m 
  379.00000m  379.0000m  887.4545m 
  380.00000m  380.0000m  885.8958m 
  381.00000m  381.0000m  884.3214m 
  382.00000m  382.0000m  882.7311m 
  383.00000m  383.0000m  881.1249m 
  384.00000m  384.0000m  879.5026m 
  385.00000m  385.0000m  877.8643m 
  386.00000m  386.0000m  876.2098m 
  387.00000m  387.0000m  874.5390m 
  388.00000m  388.0000m  872.8519m 
  389.00000m  389.0000m  871.1485m 
  390.00000m  390.0000m  869.4285m 
  391.00000m  391.0000m  867.6920m 
  392.00000m  392.0000m  865.9388m 
  393.00000m  393.0000m  864.1689m 
  394.00000m  394.0000m  862.3822m 
  395.00000m  395.0000m  860.5787m 
  396.00000m  396.0000m  858.7581m 
  397.00000m  397.0000m  856.9206m 
  398.00000m  398.0000m  855.0659m 
  399.00000m  399.0000m  853.1940m 
  400.00000m  400.0000m  851.3048m 
  401.00000m  401.0000m  849.3983m 
  402.00000m  402.0000m  847.4743m 
  403.00000m  403.0000m  845.5327m 
  404.00000m  404.0000m  843.5736m 
  405.00000m  405.0000m  841.5967m 
  406.00000m  406.0000m  839.6020m 
  407.00000m  407.0000m  837.5894m 
  408.00000m  408.0000m  835.5589m 
  409.00000m  409.0000m  833.5102m 
  410.00000m  410.0000m  831.4434m 
  411.00000m  411.0000m  829.3584m 
  412.00000m  412.0000m  827.2550m 
  413.00000m  413.0000m  825.1331m 
  414.00000m  414.0000m  822.9927m 
  415.00000m  415.0000m  820.8336m 
  416.00000m  416.0000m  818.6557m 
  417.00000m  417.0000m  816.4590m 
  418.00000m  418.0000m  814.2434m 
  419.00000m  419.0000m  812.0086m 
  420.00000m  420.0000m  809.7547m 
  421.00000m  421.0000m  807.4814m 
  422.00000m  422.0000m  805.1888m 
  423.00000m  423.0000m  802.8766m 
  424.00000m  424.0000m  800.5448m 
  425.00000m  425.0000m  798.1931m 
  426.00000m  426.0000m  795.8216m 
  427.00000m  427.0000m  793.4300m 
  428.00000m  428.0000m  791.0183m 
  429.00000m  429.0000m  788.5863m 
  430.00000m  430.0000m  786.1338m 
  431.00000m  431.0000m  783.6607m 
  432.00000m  432.0000m  781.1669m 
  433.00000m  433.0000m  778.6523m 
  434.00000m  434.0000m  776.1165m 
  435.00000m  435.0000m  773.5597m 
  436.00000m  436.0000m  770.9814m 
  437.00000m  437.0000m  768.3816m 
  438.00000m  438.0000m  765.7602m 
  439.00000m  439.0000m  763.1169m 
  440.00000m  440.0000m  760.4515m 
  441.00000m  441.0000m  757.7639m 
  442.00000m  442.0000m  755.0539m 
  443.00000m  443.0000m  752.3213m 
  444.00000m  444.0000m  749.5659m 
  445.00000m  445.0000m  746.7874m 
  446.00000m  446.0000m  743.9857m 
  447.00000m  447.0000m  741.1606m 
  448.00000m  448.0000m  738.3117m 
  449.00000m  449.0000m  735.4390m 
  450.00000m  450.0000m  732.5421m 
  451.00000m  451.0000m  729.6208m 
  452.00000m  452.0000m  726.6748m 
  453.00000m  453.0000m  723.7040m 
  454.00000m  454.0000m  720.7079m 
  455.00000m  455.0000m  717.6864m 
  456.00000m  456.0000m  714.6391m 
  457.00000m  457.0000m  711.5658m 
  458.00000m  458.0000m  708.4661m 
  459.00000m  459.0000m  705.3398m 
  460.00000m  460.0000m  702.1865m 
  461.00000m  461.0000m  699.0058m 
  462.00000m  462.0000m  695.7975m 
  463.00000m  463.0000m  692.5612m 
  464.00000m  464.0000m  689.2965m 
  465.00000m  465.0000m  686.0030m 
  466.00000m  466.0000m  682.6804m 
  467.00000m  467.0000m  679.3282m 
  468.00000m  468.0000m  675.9461m 
  469.00000m  469.0000m  672.5335m 
  470.00000m  470.0000m  669.0902m 
  471.00000m  471.0000m  665.6155m 
  472.00000m  472.0000m  662.1091m 
  473.00000m  473.0000m  658.5704m 
  474.00000m  474.0000m  654.9990m 
  475.00000m  475.0000m  651.3944m 
  476.00000m  476.0000m  647.7560m 
  477.00000m  477.0000m  644.0834m 
  478.00000m  478.0000m  640.3758m 
  479.00000m  479.0000m  636.6328m 
  480.00000m  480.0000m  632.8538m 
  481.00000m  481.0000m  629.0382m 
  482.00000m  482.0000m  625.1853m 
  483.00000m  483.0000m  621.2946m 
  484.00000m  484.0000m  617.3653m 
  485.00000m  485.0000m  613.3969m 
  486.00000m  486.0000m  609.3886m 
  487.00000m  487.0000m  605.3397m 
  488.00000m  488.0000m  601.2496m 
  489.00000m  489.0000m  597.1175m 
  490.00000m  490.0000m  592.9427m 
  491.00000m  491.0000m  588.7246m 
  492.00000m  492.0000m  584.4622m 
  493.00000m  493.0000m  580.1550m 
  494.00000m  494.0000m  575.8021m 
  495.00000m  495.0000m  571.4029m 
  496.00000m  496.0000m  566.9566m 
  497.00000m  497.0000m  562.4625m 
  498.00000m  498.0000m  557.9199m 
  499.00000m  499.0000m  553.3281m 
  500.00000m  500.0000m  548.6866m 
  501.00000m  501.0000m  543.9947m 
  502.00000m  502.0000m  539.2519m 
  503.00000m  503.0000m  534.4577m 
  504.00000m  504.0000m  529.6118m 
  505.00000m  505.0000m  524.7137m 
  506.00000m  506.0000m  519.7634m 
  507.00000m  507.0000m  514.7606m 
  508.00000m  508.0000m  509.7054m 
  509.00000m  509.0000m  504.5981m 
  510.00000m  510.0000m  499.4388m 
  511.00000m  511.0000m  494.2282m 
  512.00000m  512.0000m  488.9670m 
  513.00000m  513.0000m  483.6560m 
  514.00000m  514.0000m  478.2965m 
  515.00000m  515.0000m  472.8898m 
  516.00000m  516.0000m  467.4375m 
  517.00000m  517.0000m  461.9416m 
  518.00000m  518.0000m  456.4042m 
  519.00000m  519.0000m  450.8277m 
  520.00000m  520.0000m  445.2148m 
  521.00000m  521.0000m  439.5685m 
  522.00000m  522.0000m  433.8919m 
  523.00000m  523.0000m  428.1884m 
  524.00000m  524.0000m  422.4616m 
  525.00000m  525.0000m  416.7154m 
  526.00000m  526.0000m  410.9537m 
  527.00000m  527.0000m  405.1805m 
  528.00000m  528.0000m  399.4002m 
  529.00000m  529.0000m  393.6171m 
  530.00000m  530.0000m  387.8354m 
  531.00000m  531.0000m  382.0597m 
  532.00000m  532.0000m  376.2944m 
  533.00000m  533.0000m  370.5440m 
  534.00000m  534.0000m  364.8129m 
  535.00000m  535.0000m  359.1058m 
  536.00000m  536.0000m  353.4269m 
  537.00000m  537.0000m  347.7808m 
  538.00000m  538.0000m  342.1719m 
  539.00000m  539.0000m  336.6046m 
  540.00000m  540.0000m  331.0833m 
  541.00000m  541.0000m  325.6124m 
  542.00000m  542.0000m  320.1961m 
  543.00000m  543.0000m  314.8389m 
  544.00000m  544.0000m  309.5450m 
  545.00000m  545.0000m  304.3188m 
  546.00000m  546.0000m  299.1645m 
  547.00000m  547.0000m  294.0862m 
  548.00000m  548.0000m  289.0882m 
  549.00000m  549.0000m  284.1746m 
  550.00000m  550.0000m  279.3494m 
  551.00000m  551.0000m  274.6164m 
  552.00000m  552.0000m  269.9795m 
  553.00000m  553.0000m  265.4422m 
  554.00000m  554.0000m  261.0078m 
  555.00000m  555.0000m  256.6795m 
  556.00000m  556.0000m  252.4600m 
  557.00000m  557.0000m  248.3518m 
  558.00000m  558.0000m  244.3569m 
  559.00000m  559.0000m  240.4770m 
  560.00000m  560.0000m  236.7132m 
  561.00000m  561.0000m  233.0661m 
  562.00000m  562.0000m  229.5359m 
  563.00000m  563.0000m  226.1222m 
  564.00000m  564.0000m  222.8241m 
  565.00000m  565.0000m  219.6403m 
  566.00000m  566.0000m  216.5690m 
  567.00000m  567.0000m  213.6078m 
  568.00000m  568.0000m  210.7542m 
  569.00000m  569.0000m  208.0052m 
  570.00000m  570.0000m  205.3576m 
  571.00000m  571.0000m  202.8081m 
  572.00000m  572.0000m  200.3530m 
  573.00000m  573.0000m  197.9886m 
  574.00000m  574.0000m  195.7113m 
  575.00000m  575.0000m  193.5174m 
  576.00000m  576.0000m  191.4031m 
  577.00000m  577.0000m  189.3648m 
  578.00000m  578.0000m  187.3990m 
  579.00000m  579.0000m  185.5022m 
  580.00000m  580.0000m  183.6710m 
  581.00000m  581.0000m  181.9024m 
  582.00000m  582.0000m  180.1932m 
  583.00000m  583.0000m  178.5405m 
  584.00000m  584.0000m  176.9415m 
  585.00000m  585.0000m  175.3936m 
  586.00000m  586.0000m  173.8944m 
  587.00000m  587.0000m  172.4414m 
  588.00000m  588.0000m  171.0324m 
  589.00000m  589.0000m  169.6653m 
  590.00000m  590.0000m  168.3382m 
  591.00000m  591.0000m  167.0491m 
  592.00000m  592.0000m  165.7964m 
  593.00000m  593.0000m  164.5782m 
  594.00000m  594.0000m  163.3932m 
  595.00000m  595.0000m  162.2398m 
  596.00000m  596.0000m  161.1165m 
  597.00000m  597.0000m  160.0222m 
  598.00000m  598.0000m  158.9556m 
  599.00000m  599.0000m  157.9155m 
  600.00000m  600.0000m  156.9008m 
  601.00000m  601.0000m  155.9104m 
  602.00000m  602.0000m  154.9435m 
  603.00000m  603.0000m  153.9990m 
  604.00000m  604.0000m  153.0762m 
  605.00000m  605.0000m  152.1740m 
  606.00000m  606.0000m  151.2919m 
  607.00000m  607.0000m  150.4290m 
  608.00000m  608.0000m  149.5846m 
  609.00000m  609.0000m  148.7581m 
  610.00000m  610.0000m  147.9488m 
  611.00000m  611.0000m  147.1561m 
  612.00000m  612.0000m  146.3795m 
  613.00000m  613.0000m  145.6183m 
  614.00000m  614.0000m  144.8722m 
  615.00000m  615.0000m  144.1405m 
  616.00000m  616.0000m  143.4228m 
  617.00000m  617.0000m  142.7187m 
  618.00000m  618.0000m  142.0277m 
  619.00000m  619.0000m  141.3494m 
  620.00000m  620.0000m  140.6835m 
  621.00000m  621.0000m  140.0295m 
  622.00000m  622.0000m  139.3871m 
  623.00000m  623.0000m  138.7559m 
  624.00000m  624.0000m  138.1357m 
  625.00000m  625.0000m  137.5260m 
  626.00000m  626.0000m  136.9267m 
  627.00000m  627.0000m  136.3374m 
  628.00000m  628.0000m  135.7578m 
  629.00000m  629.0000m  135.1877m 
  630.00000m  630.0000m  134.6268m 
  631.00000m  631.0000m  134.0749m 
  632.00000m  632.0000m  133.5317m 
  633.00000m  633.0000m  132.9970m 
  634.00000m  634.0000m  132.4706m 
  635.00000m  635.0000m  131.9522m 
  636.00000m  636.0000m  131.4418m 
  637.00000m  637.0000m  130.9390m 
  638.00000m  638.0000m  130.4436m 
  639.00000m  639.0000m  129.9556m 
  640.00000m  640.0000m  129.4747m 
  641.00000m  641.0000m  129.0008m 
  642.00000m  642.0000m  128.5336m 
  643.00000m  643.0000m  128.0731m 
  644.00000m  644.0000m  127.6191m 
  645.00000m  645.0000m  127.1714m 
  646.00000m  646.0000m  126.7299m 
  647.00000m  647.0000m  126.2944m 
  648.00000m  648.0000m  125.8649m 
  649.00000m  649.0000m  125.4411m 
  650.00000m  650.0000m  125.0230m 
  651.00000m  651.0000m  124.6105m 
  652.00000m  652.0000m  124.2033m 
  653.00000m  653.0000m  123.8015m 
  654.00000m  654.0000m  123.4049m 
  655.00000m  655.0000m  123.0133m 
  656.00000m  656.0000m  122.6268m 
  657.00000m  657.0000m  122.2451m 
  658.00000m  658.0000m  121.8682m 
  659.00000m  659.0000m  121.4960m 
  660.00000m  660.0000m  121.1284m 
  661.00000m  661.0000m  120.7653m 
  662.00000m  662.0000m  120.4066m 
  663.00000m  663.0000m  120.0523m 
  664.00000m  664.0000m  119.7022m 
  665.00000m  665.0000m  119.3562m 
  666.00000m  666.0000m  119.0144m 
  667.00000m  667.0000m  118.6766m 
  668.00000m  668.0000m  118.3427m 
  669.00000m  669.0000m  118.0127m 
  670.00000m  670.0000m  117.6865m 
  671.00000m  671.0000m  117.3640m 
  672.00000m  672.0000m  117.0452m 
  673.00000m  673.0000m  116.7299m 
  674.00000m  674.0000m  116.4182m 
  675.00000m  675.0000m  116.1100m 
  676.00000m  676.0000m  115.8052m 
  677.00000m  677.0000m  115.5038m 
  678.00000m  678.0000m  115.2056m 
  679.00000m  679.0000m  114.9107m 
  680.00000m  680.0000m  114.6190m 
  681.00000m  681.0000m  114.3304m 
  682.00000m  682.0000m  114.0449m 
  683.00000m  683.0000m  113.7624m 
  684.00000m  684.0000m  113.4829m 
  685.00000m  685.0000m  113.2063m 
  686.00000m  686.0000m  112.9326m 
  687.00000m  687.0000m  112.6618m 
  688.00000m  688.0000m  112.3937m 
  689.00000m  689.0000m  112.1284m 
  690.00000m  690.0000m  111.8658m 
  691.00000m  691.0000m  111.6058m 
  692.00000m  692.0000m  111.3485m 
  693.00000m  693.0000m  111.0938m 
  694.00000m  694.0000m  110.8416m 
  695.00000m  695.0000m  110.5919m 
  696.00000m  696.0000m  110.3447m 
  697.00000m  697.0000m  110.0999m 
  698.00000m  698.0000m  109.8575m 
  699.00000m  699.0000m  109.6174m 
  700.00000m  700.0000m  109.3797m 
  701.00000m  701.0000m  109.1442m 
  702.00000m  702.0000m  108.9111m 
  703.00000m  703.0000m  108.6801m 
  704.00000m  704.0000m  108.4513m 
  705.00000m  705.0000m  108.2247m 
  706.00000m  706.0000m  108.0002m 
  707.00000m  707.0000m  107.7778m 
  708.00000m  708.0000m  107.5575m 
  709.00000m  709.0000m  107.3392m 
  710.00000m  710.0000m  107.1229m 
  711.00000m  711.0000m  106.9087m 
  712.00000m  712.0000m  106.6963m 
  713.00000m  713.0000m  106.4859m 
  714.00000m  714.0000m  106.2774m 
  715.00000m  715.0000m  106.0708m 
  716.00000m  716.0000m  105.8660m 
  717.00000m  717.0000m  105.6631m 
  718.00000m  718.0000m  105.4620m 
  719.00000m  719.0000m  105.2626m 
  720.00000m  720.0000m  105.0650m 
  721.00000m  721.0000m  104.8691m 
  722.00000m  722.0000m  104.6750m 
  723.00000m  723.0000m  104.4825m 
  724.00000m  724.0000m  104.2917m 
  725.00000m  725.0000m  104.1026m 
  726.00000m  726.0000m  103.9150m 
  727.00000m  727.0000m  103.7291m 
  728.00000m  728.0000m  103.5448m 
  729.00000m  729.0000m  103.3620m 
  730.00000m  730.0000m  103.1808m 
  731.00000m  731.0000m  103.0010m 
  732.00000m  732.0000m  102.8228m 
  733.00000m  733.0000m  102.6461m 
  734.00000m  734.0000m  102.4709m 
  735.00000m  735.0000m  102.2971m 
  736.00000m  736.0000m  102.1247m 
  737.00000m  737.0000m  101.9538m 
  738.00000m  738.0000m  101.7843m 
  739.00000m  739.0000m  101.6161m 
  740.00000m  740.0000m  101.4493m 
  741.00000m  741.0000m  101.2839m 
  742.00000m  742.0000m  101.1198m 
  743.00000m  743.0000m  100.9570m 
  744.00000m  744.0000m  100.7955m 
  745.00000m  745.0000m  100.6353m 
  746.00000m  746.0000m  100.4764m 
  747.00000m  747.0000m  100.3187m 
  748.00000m  748.0000m  100.1623m 
  749.00000m  749.0000m  100.0071m 
  750.00000m  750.0000m   99.8531m 
  751.00000m  751.0000m   99.7004m 
  752.00000m  752.0000m   99.5488m 
  753.00000m  753.0000m   99.3984m 
  754.00000m  754.0000m   99.2492m 
  755.00000m  755.0000m   99.1011m 
  756.00000m  756.0000m   98.9541m 
  757.00000m  757.0000m   98.8083m 
  758.00000m  758.0000m   98.6636m 
  759.00000m  759.0000m   98.5200m 
  760.00000m  760.0000m   98.3774m 
  761.00000m  761.0000m   98.2360m 
  762.00000m  762.0000m   98.0956m 
  763.00000m  763.0000m   97.9563m 
  764.00000m  764.0000m   97.8180m 
  765.00000m  765.0000m   97.6807m 
  766.00000m  766.0000m   97.5445m 
  767.00000m  767.0000m   97.4092m 
  768.00000m  768.0000m   97.2750m 
  769.00000m  769.0000m   97.1418m 
  770.00000m  770.0000m   97.0095m 
  771.00000m  771.0000m   96.8782m 
  772.00000m  772.0000m   96.7479m 
  773.00000m  773.0000m   96.6185m 
  774.00000m  774.0000m   96.4900m 
  775.00000m  775.0000m   96.3625m 
  776.00000m  776.0000m   96.2359m 
  777.00000m  777.0000m   96.1102m 
  778.00000m  778.0000m   95.9854m 
  779.00000m  779.0000m   95.8615m 
  780.00000m  780.0000m   95.7385m 
  781.00000m  781.0000m   95.6163m 
  782.00000m  782.0000m   95.4950m 
  783.00000m  783.0000m   95.3746m 
  784.00000m  784.0000m   95.2550m 
  785.00000m  785.0000m   95.1363m 
  786.00000m  786.0000m   95.0184m 
  787.00000m  787.0000m   94.9013m 
  788.00000m  788.0000m   94.7850m 
  789.00000m  789.0000m   94.6696m 
  790.00000m  790.0000m   94.5549m 
  791.00000m  791.0000m   94.4410m 
  792.00000m  792.0000m   94.3280m 
  793.00000m  793.0000m   94.2157m 
  794.00000m  794.0000m   94.1041m 
  795.00000m  795.0000m   93.9933m 
  796.00000m  796.0000m   93.8833m 
  797.00000m  797.0000m   93.7740m 
  798.00000m  798.0000m   93.6655m 
  799.00000m  799.0000m   93.5577m 
  800.00000m  800.0000m   93.4506m 
  801.00000m  801.0000m   93.3443m 
  802.00000m  802.0000m   93.2387m 
  803.00000m  803.0000m   93.1337m 
  804.00000m  804.0000m   93.0295m 
  805.00000m  805.0000m   92.9260m 
  806.00000m  806.0000m   92.8231m 
  807.00000m  807.0000m   92.7209m 
  808.00000m  808.0000m   92.6194m 
  809.00000m  809.0000m   92.5186m 
  810.00000m  810.0000m   92.4185m 
  811.00000m  811.0000m   92.3190m 
  812.00000m  812.0000m   92.2201m 
  813.00000m  813.0000m   92.1219m 
  814.00000m  814.0000m   92.0243m 
  815.00000m  815.0000m   91.9274m 
  816.00000m  816.0000m   91.8311m 
  817.00000m  817.0000m   91.7354m 
  818.00000m  818.0000m   91.6404m 
  819.00000m  819.0000m   91.5459m 
  820.00000m  820.0000m   91.4521m 
  821.00000m  821.0000m   91.3588m 
  822.00000m  822.0000m   91.2662m 
  823.00000m  823.0000m   91.1741m 
  824.00000m  824.0000m   91.0827m 
  825.00000m  825.0000m   90.9918m 
  826.00000m  826.0000m   90.9015m 
  827.00000m  827.0000m   90.8117m 
  828.00000m  828.0000m   90.7225m 
  829.00000m  829.0000m   90.6339m 
  830.00000m  830.0000m   90.5459m 
  831.00000m  831.0000m   90.4584m 
  832.00000m  832.0000m   90.3714m 
  833.00000m  833.0000m   90.2850m 
  834.00000m  834.0000m   90.1991m 
  835.00000m  835.0000m   90.1138m 
  836.00000m  836.0000m   90.0290m 
  837.00000m  837.0000m   89.9447m 
  838.00000m  838.0000m   89.8609m 
  839.00000m  839.0000m   89.7777m 
  840.00000m  840.0000m   89.6949m 
  841.00000m  841.0000m   89.6127m 
  842.00000m  842.0000m   89.5310m 
  843.00000m  843.0000m   89.4498m 
  844.00000m  844.0000m   89.3690m 
  845.00000m  845.0000m   89.2888m 
  846.00000m  846.0000m   89.2091m 
  847.00000m  847.0000m   89.1298m 
  848.00000m  848.0000m   89.0510m 
  849.00000m  849.0000m   88.9727m 
  850.00000m  850.0000m   88.8949m 
  851.00000m  851.0000m   88.8175m 
  852.00000m  852.0000m   88.7406m 
  853.00000m  853.0000m   88.6641m 
  854.00000m  854.0000m   88.5882m 
  855.00000m  855.0000m   88.5126m 
  856.00000m  856.0000m   88.4376m 
  857.00000m  857.0000m   88.3629m 
  858.00000m  858.0000m   88.2887m 
  859.00000m  859.0000m   88.2150m 
  860.00000m  860.0000m   88.1417m 
  861.00000m  861.0000m   88.0688m 
  862.00000m  862.0000m   87.9963m 
  863.00000m  863.0000m   87.9243m 
  864.00000m  864.0000m   87.8527m 
  865.00000m  865.0000m   87.7815m 
  866.00000m  866.0000m   87.7108m 
  867.00000m  867.0000m   87.6404m 
  868.00000m  868.0000m   87.5705m 
  869.00000m  869.0000m   87.5010m 
  870.00000m  870.0000m   87.4319m 
  871.00000m  871.0000m   87.3631m 
  872.00000m  872.0000m   87.2948m 
  873.00000m  873.0000m   87.2269m 
  874.00000m  874.0000m   87.1593m 
  875.00000m  875.0000m   87.0922m 
  876.00000m  876.0000m   87.0254m 
  877.00000m  877.0000m   86.9591m 
  878.00000m  878.0000m   86.8931m 
  879.00000m  879.0000m   86.8275m 
  880.00000m  880.0000m   86.7622m 
  881.00000m  881.0000m   86.6973m 
  882.00000m  882.0000m   86.6328m 
  883.00000m  883.0000m   86.5687m 
  884.00000m  884.0000m   86.5050m 
  885.00000m  885.0000m   86.4415m 
  886.00000m  886.0000m   86.3785m 
  887.00000m  887.0000m   86.3158m 
  888.00000m  888.0000m   86.2535m 
  889.00000m  889.0000m   86.1915m 
  890.00000m  890.0000m   86.1299m 
  891.00000m  891.0000m   86.0686m 
  892.00000m  892.0000m   86.0077m 
  893.00000m  893.0000m   85.9471m 
  894.00000m  894.0000m   85.8868m 
  895.00000m  895.0000m   85.8269m 
  896.00000m  896.0000m   85.7673m 
  897.00000m  897.0000m   85.7080m 
  898.00000m  898.0000m   85.6491m 
  899.00000m  899.0000m   85.5905m 
  900.00000m  900.0000m   85.5322m 
  901.00000m  901.0000m   85.4743m 
  902.00000m  902.0000m   85.4167m 
  903.00000m  903.0000m   85.3594m 
  904.00000m  904.0000m   85.3024m 
  905.00000m  905.0000m   85.2457m 
  906.00000m  906.0000m   85.1893m 
  907.00000m  907.0000m   85.1333m 
  908.00000m  908.0000m   85.0775m 
  909.00000m  909.0000m   85.0221m 
  910.00000m  910.0000m   84.9670m 
  911.00000m  911.0000m   84.9121m 
  912.00000m  912.0000m   84.8576m 
  913.00000m  913.0000m   84.8034m 
  914.00000m  914.0000m   84.7494m 
  915.00000m  915.0000m   84.6958m 
  916.00000m  916.0000m   84.6424m 
  917.00000m  917.0000m   84.5894m 
  918.00000m  918.0000m   84.5366m 
  919.00000m  919.0000m   84.4841m 
  920.00000m  920.0000m   84.4319m 
  921.00000m  921.0000m   84.3800m 
  922.00000m  922.0000m   84.3283m 
  923.00000m  923.0000m   84.2769m 
  924.00000m  924.0000m   84.2259m 
  925.00000m  925.0000m   84.1750m 
  926.00000m  926.0000m   84.1245m 
  927.00000m  927.0000m   84.0742m 
  928.00000m  928.0000m   84.0242m 
  929.00000m  929.0000m   83.9745m 
  930.00000m  930.0000m   83.9250m 
  931.00000m  931.0000m   83.8758m 
  932.00000m  932.0000m   83.8269m 
  933.00000m  933.0000m   83.7782m 
  934.00000m  934.0000m   83.7298m 
  935.00000m  935.0000m   83.6816m 
  936.00000m  936.0000m   83.6337m 
  937.00000m  937.0000m   83.5861m 
  938.00000m  938.0000m   83.5387m 
  939.00000m  939.0000m   83.4915m 
  940.00000m  940.0000m   83.4446m 
  941.00000m  941.0000m   83.3980m 
  942.00000m  942.0000m   83.3516m 
  943.00000m  943.0000m   83.3054m 
  944.00000m  944.0000m   83.2595m 
  945.00000m  945.0000m   83.2138m 
  946.00000m  946.0000m   83.1684m 
  947.00000m  947.0000m   83.1232m 
  948.00000m  948.0000m   83.0782m 
  949.00000m  949.0000m   83.0335m 
  950.00000m  950.0000m   82.9890m 
  951.00000m  951.0000m   82.9448m 
  952.00000m  952.0000m   82.9007m 
  953.00000m  953.0000m   82.8569m 
  954.00000m  954.0000m   82.8134m 
  955.00000m  955.0000m   82.7700m 
  956.00000m  956.0000m   82.7269m 
  957.00000m  957.0000m   82.6840m 
  958.00000m  958.0000m   82.6414m 
  959.00000m  959.0000m   82.5989m 
  960.00000m  960.0000m   82.5567m 
  961.00000m  961.0000m   82.5147m 
  962.00000m  962.0000m   82.4729m 
  963.00000m  963.0000m   82.4313m 
  964.00000m  964.0000m   82.3900m 
  965.00000m  965.0000m   82.3488m 
  966.00000m  966.0000m   82.3079m 
  967.00000m  967.0000m   82.2672m 
  968.00000m  968.0000m   82.2267m 
  969.00000m  969.0000m   82.1864m 
  970.00000m  970.0000m   82.1463m 
  971.00000m  971.0000m   82.1064m 
  972.00000m  972.0000m   82.0667m 
  973.00000m  973.0000m   82.0273m 
  974.00000m  974.0000m   81.9880m 
  975.00000m  975.0000m   81.9489m 
  976.00000m  976.0000m   81.9100m 
  977.00000m  977.0000m   81.8714m 
  978.00000m  978.0000m   81.8329m 
  979.00000m  979.0000m   81.7946m 
  980.00000m  980.0000m   81.7565m 
  981.00000m  981.0000m   81.7186m 
  982.00000m  982.0000m   81.6809m 
  983.00000m  983.0000m   81.6434m 
  984.00000m  984.0000m   81.6061m 
  985.00000m  985.0000m   81.5690m 
  986.00000m  986.0000m   81.5321m 
  987.00000m  987.0000m   81.4953m 
  988.00000m  988.0000m   81.4588m 
  989.00000m  989.0000m   81.4224m 
  990.00000m  990.0000m   81.3862m 
  991.00000m  991.0000m   81.3502m 
  992.00000m  992.0000m   81.3144m 
  993.00000m  993.0000m   81.2788m 
  994.00000m  994.0000m   81.2433m 
  995.00000m  995.0000m   81.2080m 
  996.00000m  996.0000m   81.1729m 
  997.00000m  997.0000m   81.1380m 
  998.00000m  998.0000m   81.1032m 
  999.00000m  999.0000m   81.0687m 
    1.00000     1.0000    81.0343m 
y

          ***** job concluded
1****** HSPICE -- O-2018.09-SP2 win64 (Feb 25 2019) ******                      
 ******  
 

 ****** job statistics summary tnom=  25.000 temp=  25.000 ******

  ******  HSPICE Threads Information  ******

  Command Line Threads Count :     1
  Available CPU Count        :     8
  Actual Threads Count       :     1


  ******  Circuit Statistics  ******
  # nodes       =      12 # elements   =       4
  # resistors   =       0 # capacitors =       0 # inductors   =       0
  # mutual_inds =       0 # vccs       =       0 # vcvs        =       0
  # cccs        =       0 # ccvs       =       0 # volt_srcs   =       2
  # curr_srcs   =       0 # diodes     =       0 # bjts        =       0
  # jfets       =       0 # mosfets    =       2 # U elements  =       0
  # T elements  =       0 # W elements =       0 # B elements  =       0
  # S elements  =       0 # P elements =       0 # va device   =       0
  # vector_srcs =       0 # N elements =       0


  ******  Runtime Statistics (seconds)  ******

  analysis           time    # points   tot. iter  conv.iter
  op point           0.00           1           0
  dc sweep           0.04        1001        2010
  readin             0.01
  errchk             0.00
  setup              0.00
  output             0.00


           peak memory used         61.69 megabytes
           total cpu time            0.06 seconds
           total elapsed time        0.08 seconds
           job started at     18:20:08 10/29/2021
           job ended   at     18:20:08 10/29/2021


  
      

Element variations(Local):   element              parameter
 *****************************************************************
 ******  option summary
 ******
 runlvl  = 3         bypass  = 2.0000    
 ******
 

 ****** dc transfer curves tnom=  25.000 temp=  25.000 ******
x

 volt         voltage    voltage   
             vin        vout       
    0.          0.       999.9792m 
    1.00000m    1.0000m  999.9789m 
    2.00000m    2.0000m  999.9787m 
    3.00000m    3.0000m  999.9785m 
    4.00000m    4.0000m  999.9782m 
    5.00000m    5.0000m  999.9780m 
    6.00000m    6.0000m  999.9777m 
    7.00000m    7.0000m  999.9774m 
    8.00000m    8.0000m  999.9772m 
    9.00000m    9.0000m  999.9769m 
   10.00000m   10.0000m  999.9766m 
   11.00000m   11.0000m  999.9763m 
   12.00000m   12.0000m  999.9759m 
   13.00000m   13.0000m  999.9756m 
   14.00000m   14.0000m  999.9753m 
   15.00000m   15.0000m  999.9749m 
   16.00000m   16.0000m  999.9746m 
   17.00000m   17.0000m  999.9742m 
   18.00000m   18.0000m  999.9738m 
   19.00000m   19.0000m  999.9734m 
   20.00000m   20.0000m  999.9730m 
   21.00000m   21.0000m  999.9726m 
   22.00000m   22.0000m  999.9722m 
   23.00000m   23.0000m  999.9717m 
   24.00000m   24.0000m  999.9713m 
   25.00000m   25.0000m  999.9708m 
   26.00000m   26.0000m  999.9703m 
   27.00000m   27.0000m  999.9698m 
   28.00000m   28.0000m  999.9693m 
   29.00000m   29.0000m  999.9688m 
   30.00000m   30.0000m  999.9682m 
   31.00000m   31.0000m  999.9677m 
   32.00000m   32.0000m  999.9671m 
   33.00000m   33.0000m  999.9665m 
   34.00000m   34.0000m  999.9659m 
   35.00000m   35.0000m  999.9652m 
   36.00000m   36.0000m  999.9646m 
   37.00000m   37.0000m  999.9639m 
   38.00000m   38.0000m  999.9632m 
   39.00000m   39.0000m  999.9625m 
   40.00000m   40.0000m  999.9618m 
   41.00000m   41.0000m  999.9610m 
   42.00000m   42.0000m  999.9602m 
   43.00000m   43.0000m  999.9594m 
   44.00000m   44.0000m  999.9586m 
   45.00000m   45.0000m  999.9577m 
   46.00000m   46.0000m  999.9568m 
   47.00000m   47.0000m  999.9559m 
   48.00000m   48.0000m  999.9550m 
   49.00000m   49.0000m  999.9540m 
   50.00000m   50.0000m  999.9531m 
   51.00000m   51.0000m  999.9520m 
   52.00000m   52.0000m  999.9510m 
   53.00000m   53.0000m  999.9499m 
   54.00000m   54.0000m  999.9488m 
   55.00000m   55.0000m  999.9476m 
   56.00000m   56.0000m  999.9465m 
   57.00000m   57.0000m  999.9453m 
   58.00000m   58.0000m  999.9440m 
   59.00000m   59.0000m  999.9427m 
   60.00000m   60.0000m  999.9414m 
   61.00000m   61.0000m  999.9400m 
   62.00000m   62.0000m  999.9386m 
   63.00000m   63.0000m  999.9372m 
   64.00000m   64.0000m  999.9357m 
   65.00000m   65.0000m  999.9342m 
   66.00000m   66.0000m  999.9326m 
   67.00000m   67.0000m  999.9310m 
   68.00000m   68.0000m  999.9293m 
   69.00000m   69.0000m  999.9276m 
   70.00000m   70.0000m  999.9258m 
   71.00000m   71.0000m  999.9240m 
   72.00000m   72.0000m  999.9221m 
   73.00000m   73.0000m  999.9202m 
   74.00000m   74.0000m  999.9182m 
   75.00000m   75.0000m  999.9162m 
   76.00000m   76.0000m  999.9141m 
   77.00000m   77.0000m  999.9120m 
   78.00000m   78.0000m  999.9098m 
   79.00000m   79.0000m  999.9075m 
   80.00000m   80.0000m  999.9051m 
   81.00000m   81.0000m  999.9027m 
   82.00000m   82.0000m  999.9002m 
   83.00000m   83.0000m  999.8977m 
   84.00000m   84.0000m  999.8951m 
   85.00000m   85.0000m  999.8924m 
   86.00000m   86.0000m  999.8896m 
   87.00000m   87.0000m  999.8868m 
   88.00000m   88.0000m  999.8838m 
   89.00000m   89.0000m  999.8808m 
   90.00000m   90.0000m  999.8777m 
   91.00000m   91.0000m  999.8745m 
   92.00000m   92.0000m  999.8713m 
   93.00000m   93.0000m  999.8679m 
   94.00000m   94.0000m  999.8644m 
   95.00000m   95.0000m  999.8609m 
   96.00000m   96.0000m  999.8572m 
   97.00000m   97.0000m  999.8535m 
   98.00000m   98.0000m  999.8496m 
   99.00000m   99.0000m  999.8456m 
  100.00000m  100.0000m  999.8415m 
  101.00000m  101.0000m  999.8374m 
  102.00000m  102.0000m  999.8330m 
  103.00000m  103.0000m  999.8286m 
  104.00000m  104.0000m  999.8241m 
  105.00000m  105.0000m  999.8194m 
  106.00000m  106.0000m  999.8146m 
  107.00000m  107.0000m  999.8097m 
  108.00000m  108.0000m  999.8046m 
  109.00000m  109.0000m  999.7994m 
  110.00000m  110.0000m  999.7941m 
  111.00000m  111.0000m  999.7886m 
  112.00000m  112.0000m  999.7829m 
  113.00000m  113.0000m  999.7771m 
  114.00000m  114.0000m  999.7712m 
  115.00000m  115.0000m  999.7651m 
  116.00000m  116.0000m  999.7588m 
  117.00000m  117.0000m  999.7524m 
  118.00000m  118.0000m  999.7457m 
  119.00000m  119.0000m  999.7390m 
  120.00000m  120.0000m  999.7320m 
  121.00000m  121.0000m  999.7248m 
  122.00000m  122.0000m  999.7175m 
  123.00000m  123.0000m  999.7099m 
  124.00000m  124.0000m  999.7022m 
  125.00000m  125.0000m  999.6943m 
  126.00000m  126.0000m  999.6861m 
  127.00000m  127.0000m  999.6777m 
  128.00000m  128.0000m  999.6692m 
  129.00000m  129.0000m  999.6603m 
  130.00000m  130.0000m  999.6513m 
  131.00000m  131.0000m  999.6420m 
  132.00000m  132.0000m  999.6325m 
  133.00000m  133.0000m  999.6228m 
  134.00000m  134.0000m  999.6127m 
  135.00000m  135.0000m  999.6025m 
  136.00000m  136.0000m  999.5919m 
  137.00000m  137.0000m  999.5811m 
  138.00000m  138.0000m  999.5700m 
  139.00000m  139.0000m  999.5587m 
  140.00000m  140.0000m  999.5470m 
  141.00000m  141.0000m  999.5351m 
  142.00000m  142.0000m  999.5228m 
  143.00000m  143.0000m  999.5103m 
  144.00000m  144.0000m  999.4974m 
  145.00000m  145.0000m  999.4842m 
  146.00000m  146.0000m  999.4706m 
  147.00000m  147.0000m  999.4568m 
  148.00000m  148.0000m  999.4425m 
  149.00000m  149.0000m  999.4280m 
  150.00000m  150.0000m  999.4130m 
  151.00000m  151.0000m  999.3977m 
  152.00000m  152.0000m  999.3820m 
  153.00000m  153.0000m  999.3659m 
  154.00000m  154.0000m  999.3495m 
  155.00000m  155.0000m  999.3326m 
  156.00000m  156.0000m  999.3153m 
  157.00000m  157.0000m  999.2976m 
  158.00000m  158.0000m  999.2795m 
  159.00000m  159.0000m  999.2609m 
  160.00000m  160.0000m  999.2419m 
  161.00000m  161.0000m  999.2224m 
  162.00000m  162.0000m  999.2024m 
  163.00000m  163.0000m  999.1820m 
  164.00000m  164.0000m  999.1611m 
  165.00000m  165.0000m  999.1396m 
  166.00000m  166.0000m  999.1177m 
  167.00000m  167.0000m  999.0953m 
  168.00000m  168.0000m  999.0723m 
  169.00000m  169.0000m  999.0488m 
  170.00000m  170.0000m  999.0247m 
  171.00000m  171.0000m  999.0000m 
  172.00000m  172.0000m  998.9748m 
  173.00000m  173.0000m  998.9490m 
  174.00000m  174.0000m  998.9226m 
  175.00000m  175.0000m  998.8956m 
  176.00000m  176.0000m  998.8680m 
  177.00000m  177.0000m  998.8397m 
  178.00000m  178.0000m  998.8108m 
  179.00000m  179.0000m  998.7812m 
  180.00000m  180.0000m  998.7509m 
  181.00000m  181.0000m  998.7199m 
  182.00000m  182.0000m  998.6883m 
  183.00000m  183.0000m  998.6559m 
  184.00000m  184.0000m  998.6228m 
  185.00000m  185.0000m  998.5890m 
  186.00000m  186.0000m  998.5544m 
  187.00000m  187.0000m  998.5190m 
  188.00000m  188.0000m  998.4828m 
  189.00000m  189.0000m  998.4459m 
  190.00000m  190.0000m  998.4081m 
  191.00000m  191.0000m  998.3694m 
  192.00000m  192.0000m  998.3300m 
  193.00000m  193.0000m  998.2896m 
  194.00000m  194.0000m  998.2484m 
  195.00000m  195.0000m  998.2063m 
  196.00000m  196.0000m  998.1633m 
  197.00000m  197.0000m  998.1193m 
  198.00000m  198.0000m  998.0744m 
  199.00000m  199.0000m  998.0285m 
  200.00000m  200.0000m  997.9817m 
  201.00000m  201.0000m  997.9338m 
  202.00000m  202.0000m  997.8849m 
  203.00000m  203.0000m  997.8350m 
  204.00000m  204.0000m  997.7840m 
  205.00000m  205.0000m  997.7320m 
  206.00000m  206.0000m  997.6788m 
  207.00000m  207.0000m  997.6246m 
  208.00000m  208.0000m  997.5692m 
  209.00000m  209.0000m  997.5126m 
  210.00000m  210.0000m  997.4549m 
  211.00000m  211.0000m  997.3960m 
  212.00000m  212.0000m  997.3358m 
  213.00000m  213.0000m  997.2744m 
  214.00000m  214.0000m  997.2118m 
  215.00000m  215.0000m  997.1479m 
  216.00000m  216.0000m  997.0827m 
  217.00000m  217.0000m  997.0162m 
  218.00000m  218.0000m  996.9483m 
  219.00000m  219.0000m  996.8790m 
  220.00000m  220.0000m  996.8084m 
  221.00000m  221.0000m  996.7363m 
  222.00000m  222.0000m  996.6628m 
  223.00000m  223.0000m  996.5879m 
  224.00000m  224.0000m  996.5114m 
  225.00000m  225.0000m  996.4335m 
  226.00000m  226.0000m  996.3540m 
  227.00000m  227.0000m  996.2730m 
  228.00000m  228.0000m  996.1903m 
  229.00000m  229.0000m  996.1061m 
  230.00000m  230.0000m  996.0202m 
  231.00000m  231.0000m  995.9327m 
  232.00000m  232.0000m  995.8434m 
  233.00000m  233.0000m  995.7525m 
  234.00000m  234.0000m  995.6598m 
  235.00000m  235.0000m  995.5653m 
  236.00000m  236.0000m  995.4690m 
  237.00000m  237.0000m  995.3709m 
  238.00000m  238.0000m  995.2710m 
  239.00000m  239.0000m  995.1692m 
  240.00000m  240.0000m  995.0654m 
  241.00000m  241.0000m  994.9597m 
  242.00000m  242.0000m  994.8521m 
  243.00000m  243.0000m  994.7424m 
  244.00000m  244.0000m  994.6307m 
  245.00000m  245.0000m  994.5170m 
  246.00000m  246.0000m  994.4011m 
  247.00000m  247.0000m  994.2831m 
  248.00000m  248.0000m  994.1630m 
  249.00000m  249.0000m  994.0407m 
  250.00000m  250.0000m  993.9161m 
  251.00000m  251.0000m  993.7894m 
  252.00000m  252.0000m  993.6603m 
  253.00000m  253.0000m  993.5289m 
  254.00000m  254.0000m  993.3951m 
  255.00000m  255.0000m  993.2590m 
  256.00000m  256.0000m  993.1204m 
  257.00000m  257.0000m  992.9794m 
  258.00000m  258.0000m  992.8359m 
  259.00000m  259.0000m  992.6899m 
  260.00000m  260.0000m  992.5413m 
  261.00000m  261.0000m  992.3901m 
  262.00000m  262.0000m  992.2363m 
  263.00000m  263.0000m  992.0799m 
  264.00000m  264.0000m  991.9207m 
  265.00000m  265.0000m  991.7588m 
  266.00000m  266.0000m  991.5941m 
  267.00000m  267.0000m  991.4266m 
  268.00000m  268.0000m  991.2562m 
  269.00000m  269.0000m  991.0829m 
  270.00000m  270.0000m  990.9067m 
  271.00000m  271.0000m  990.7276m 
  272.00000m  272.0000m  990.5454m 
  273.00000m  273.0000m  990.3602m 
  274.00000m  274.0000m  990.1720m 
  275.00000m  275.0000m  989.9805m 
  276.00000m  276.0000m  989.7860m 
  277.00000m  277.0000m  989.5882m 
  278.00000m  278.0000m  989.3872m 
  279.00000m  279.0000m  989.1829m 
  280.00000m  280.0000m  988.9752m 
  281.00000m  281.0000m  988.7642m 
  282.00000m  282.0000m  988.5498m 
  283.00000m  283.0000m  988.3320m 
  284.00000m  284.0000m  988.1106m 
  285.00000m  285.0000m  987.8857m 
  286.00000m  286.0000m  987.6573m 
  287.00000m  287.0000m  987.4252m 
  288.00000m  288.0000m  987.1894m 
  289.00000m  289.0000m  986.9500m 
  290.00000m  290.0000m  986.7068m 
  291.00000m  291.0000m  986.4598m 
  292.00000m  292.0000m  986.2090m 
  293.00000m  293.0000m  985.9543m 
  294.00000m  294.0000m  985.6957m 
  295.00000m  295.0000m  985.4331m 
  296.00000m  296.0000m  985.1666m 
  297.00000m  297.0000m  984.8959m 
  298.00000m  298.0000m  984.6212m 
  299.00000m  299.0000m  984.3423m 
  300.00000m  300.0000m  984.0593m 
  301.00000m  301.0000m  983.7720m 
  302.00000m  302.0000m  983.4805m 
  303.00000m  303.0000m  983.1846m 
  304.00000m  304.0000m  982.8844m 
  305.00000m  305.0000m  982.5797m 
  306.00000m  306.0000m  982.2706m 
  307.00000m  307.0000m  981.9571m 
  308.00000m  308.0000m  981.6390m 
  309.00000m  309.0000m  981.3162m 
  310.00000m  310.0000m  980.9889m 
  311.00000m  311.0000m  980.6569m 
  312.00000m  312.0000m  980.3202m 
  313.00000m  313.0000m  979.9787m 
  314.00000m  314.0000m  979.6324m 
  315.00000m  315.0000m  979.2813m 
  316.00000m  316.0000m  978.9253m 
  317.00000m  317.0000m  978.5643m 
  318.00000m  318.0000m  978.1983m 
  319.00000m  319.0000m  977.8274m 
  320.00000m  320.0000m  977.4513m 
  321.00000m  321.0000m  977.0702m 
  322.00000m  322.0000m  976.6838m 
  323.00000m  323.0000m  976.2923m 
  324.00000m  324.0000m  975.8956m 
  325.00000m  325.0000m  975.4935m 
  326.00000m  326.0000m  975.0862m 
  327.00000m  327.0000m  974.6734m 
  328.00000m  328.0000m  974.2553m 
  329.00000m  329.0000m  973.8317m 
  330.00000m  330.0000m  973.4026m 
  331.00000m  331.0000m  972.9679m 
  332.00000m  332.0000m  972.5277m 
  333.00000m  333.0000m  972.0819m 
  334.00000m  334.0000m  971.6304m 
  335.00000m  335.0000m  971.1732m 
  336.00000m  336.0000m  970.7103m 
  337.00000m  337.0000m  970.2416m 
  338.00000m  338.0000m  969.7671m 
  339.00000m  339.0000m  969.2868m 
  340.00000m  340.0000m  968.8005m 
  341.00000m  341.0000m  968.3084m 
  342.00000m  342.0000m  967.8102m 
  343.00000m  343.0000m  967.3061m 
  344.00000m  344.0000m  966.7959m 
  345.00000m  345.0000m  966.2797m 
  346.00000m  346.0000m  965.7574m 
  347.00000m  347.0000m  965.2290m 
  348.00000m  348.0000m  964.6945m 
  349.00000m  349.0000m  964.1538m 
  350.00000m  350.0000m  963.6069m 
  351.00000m  351.0000m  963.0537m 
  352.00000m  352.0000m  962.4943m 
  353.00000m  353.0000m  961.9286m 
  354.00000m  354.0000m  961.3566m 
  355.00000m  355.0000m  960.7783m 
  356.00000m  356.0000m  960.1935m 
  357.00000m  357.0000m  959.6023m 
  358.00000m  358.0000m  959.0047m 
  359.00000m  359.0000m  958.4007m 
  360.00000m  360.0000m  957.7901m 
  361.00000m  361.0000m  957.1730m 
  362.00000m  362.0000m  956.5494m 
  363.00000m  363.0000m  955.9192m 
  364.00000m  364.0000m  955.2824m 
  365.00000m  365.0000m  954.6390m 
  366.00000m  366.0000m  953.9890m 
  367.00000m  367.0000m  953.3323m 
  368.00000m  368.0000m  952.6689m 
  369.00000m  369.0000m  951.9989m 
  370.00000m  370.0000m  951.3221m 
  371.00000m  371.0000m  950.6385m 
  372.00000m  372.0000m  949.9483m 
  373.00000m  373.0000m  949.2512m 
  374.00000m  374.0000m  948.5473m 
  375.00000m  375.0000m  947.8367m 
  376.00000m  376.0000m  947.1192m 
  377.00000m  377.0000m  946.3948m 
  378.00000m  378.0000m  945.6636m 
  379.00000m  379.0000m  944.9255m 
  380.00000m  380.0000m  944.1806m 
  381.00000m  381.0000m  943.4287m 
  382.00000m  382.0000m  942.6700m 
  383.00000m  383.0000m  941.9043m 
  384.00000m  384.0000m  941.1316m 
  385.00000m  385.0000m  940.3521m 
  386.00000m  386.0000m  939.5655m 
  387.00000m  387.0000m  938.7720m 
  388.00000m  388.0000m  937.9716m 
  389.00000m  389.0000m  937.1641m 
  390.00000m  390.0000m  936.3497m 
  391.00000m  391.0000m  935.5283m 
  392.00000m  392.0000m  934.6998m 
  393.00000m  393.0000m  933.8644m 
  394.00000m  394.0000m  933.0219m 
  395.00000m  395.0000m  932.1725m 
  396.00000m  396.0000m  931.3160m 
  397.00000m  397.0000m  930.4525m 
  398.00000m  398.0000m  929.5819m 
  399.00000m  399.0000m  928.7044m 
  400.00000m  400.0000m  927.8197m 
  401.00000m  401.0000m  926.9281m 
  402.00000m  402.0000m  926.0294m 
  403.00000m  403.0000m  925.1237m 
  404.00000m  404.0000m  924.2110m 
  405.00000m  405.0000m  923.2912m 
  406.00000m  406.0000m  922.3644m 
  407.00000m  407.0000m  921.4305m 
  408.00000m  408.0000m  920.4897m 
  409.00000m  409.0000m  919.5418m 
  410.00000m  410.0000m  918.5868m 
  411.00000m  411.0000m  917.6249m 
  412.00000m  412.0000m  916.6559m 
  413.00000m  413.0000m  915.6799m 
  414.00000m  414.0000m  914.6969m 
  415.00000m  415.0000m  913.7069m 
  416.00000m  416.0000m  912.7099m 
  417.00000m  417.0000m  911.7059m 
  418.00000m  418.0000m  910.6949m 
  419.00000m  419.0000m  909.6770m 
  420.00000m  420.0000m  908.6520m 
  421.00000m  421.0000m  907.6201m 
  422.00000m  422.0000m  906.5812m 
  423.00000m  423.0000m  905.5354m 
  424.00000m  424.0000m  904.4826m 
  425.00000m  425.0000m  903.4228m 
  426.00000m  426.0000m  902.3562m 
  427.00000m  427.0000m  901.2826m 
  428.00000m  428.0000m  900.2021m 
  429.00000m  429.0000m  899.1146m 
  430.00000m  430.0000m  898.0203m 
  431.00000m  431.0000m  896.9191m 
  432.00000m  432.0000m  895.8110m 
  433.00000m  433.0000m  894.6960m 
  434.00000m  434.0000m  893.5742m 
  435.00000m  435.0000m  892.4455m 
  436.00000m  436.0000m  891.3100m 
  437.00000m  437.0000m  890.1676m 
  438.00000m  438.0000m  889.0184m 
  439.00000m  439.0000m  887.8624m 
  440.00000m  440.0000m  886.6995m 
  441.00000m  441.0000m  885.5299m 
  442.00000m  442.0000m  884.3535m 
  443.00000m  443.0000m  883.1703m 
  444.00000m  444.0000m  881.9803m 
  445.00000m  445.0000m  880.7836m 
  446.00000m  446.0000m  879.5801m 
  447.00000m  447.0000m  878.3699m 
  448.00000m  448.0000m  877.1529m 
  449.00000m  449.0000m  875.9293m 
  450.00000m  450.0000m  874.6989m 
  451.00000m  451.0000m  873.4618m 
  452.00000m  452.0000m  872.2180m 
  453.00000m  453.0000m  870.9676m 
  454.00000m  454.0000m  869.7104m 
  455.00000m  455.0000m  868.4466m 
  456.00000m  456.0000m  867.1762m 
  457.00000m  457.0000m  865.8991m 
  458.00000m  458.0000m  864.6153m 
  459.00000m  459.0000m  863.3249m 
  460.00000m  460.0000m  862.0279m 
  461.00000m  461.0000m  860.7243m 
  462.00000m  462.0000m  859.4141m 
  463.00000m  463.0000m  858.0972m 
  464.00000m  464.0000m  856.7738m 
  465.00000m  465.0000m  855.4438m 
  466.00000m  466.0000m  854.1072m 
  467.00000m  467.0000m  852.7640m 
  468.00000m  468.0000m  851.4143m 
  469.00000m  469.0000m  850.0580m 
  470.00000m  470.0000m  848.6952m 
  471.00000m  471.0000m  847.3258m 
  472.00000m  472.0000m  845.9498m 
  473.00000m  473.0000m  844.5673m 
  474.00000m  474.0000m  843.1783m 
  475.00000m  475.0000m  841.7827m 
  476.00000m  476.0000m  840.3807m 
  477.00000m  477.0000m  838.9721m 
  478.00000m  478.0000m  837.5569m 
  479.00000m  479.0000m  836.1353m 
  480.00000m  480.0000m  834.7071m 
  481.00000m  481.0000m  833.2724m 
  482.00000m  482.0000m  831.8312m 
  483.00000m  483.0000m  830.3835m 
  484.00000m  484.0000m  828.9293m 
  485.00000m  485.0000m  827.4685m 
  486.00000m  486.0000m  826.0013m 
  487.00000m  487.0000m  824.5275m 
  488.00000m  488.0000m  823.0473m 
  489.00000m  489.0000m  821.5605m 
  490.00000m  490.0000m  820.0671m 
  491.00000m  491.0000m  818.5673m 
  492.00000m  492.0000m  817.0609m 
  493.00000m  493.0000m  815.5481m 
  494.00000m  494.0000m  814.0286m 
  495.00000m  495.0000m  812.5027m 
  496.00000m  496.0000m  810.9702m 
  497.00000m  497.0000m  809.4311m 
  498.00000m  498.0000m  807.8855m 
  499.00000m  499.0000m  806.3334m 
  500.00000m  500.0000m  804.7746m 
  501.00000m  501.0000m  803.2093m 
  502.00000m  502.0000m  801.6374m 
  503.00000m  503.0000m  800.0589m 
  504.00000m  504.0000m  798.4738m 
  505.00000m  505.0000m  796.8821m 
  506.00000m  506.0000m  795.2838m 
  507.00000m  507.0000m  793.6788m 
  508.00000m  508.0000m  792.0672m 
  509.00000m  509.0000m  790.4489m 
  510.00000m  510.0000m  788.8240m 
  511.00000m  511.0000m  787.1923m 
  512.00000m  512.0000m  785.5539m 
  513.00000m  513.0000m  783.9089m 
  514.00000m  514.0000m  782.2571m 
  515.00000m  515.0000m  780.5985m 
  516.00000m  516.0000m  778.9331m 
  517.00000m  517.0000m  777.2610m 
  518.00000m  518.0000m  775.5821m 
  519.00000m  519.0000m  773.8963m 
  520.00000m  520.0000m  772.2037m 
  521.00000m  521.0000m  770.5042m 
  522.00000m  522.0000m  768.7978m 
  523.00000m  523.0000m  767.0845m 
  524.00000m  524.0000m  765.3642m 
  525.00000m  525.0000m  763.6370m 
  526.00000m  526.0000m  761.9028m 
  527.00000m  527.0000m  760.1616m 
  528.00000m  528.0000m  758.4133m 
  529.00000m  529.0000m  756.6580m 
  530.00000m  530.0000m  754.8956m 
  531.00000m  531.0000m  753.1260m 
  532.00000m  532.0000m  751.3492m 
  533.00000m  533.0000m  749.5653m 
  534.00000m  534.0000m  747.7742m 
  535.00000m  535.0000m  745.9757m 
  536.00000m  536.0000m  744.1700m 
  537.00000m  537.0000m  742.3570m 
  538.00000m  538.0000m  740.5366m 
  539.00000m  539.0000m  738.7088m 
  540.00000m  540.0000m  736.8736m 
  541.00000m  541.0000m  735.0308m 
  542.00000m  542.0000m  733.1806m 
  543.00000m  543.0000m  731.3228m 
  544.00000m  544.0000m  729.4574m 
  545.00000m  545.0000m  727.5843m 
  546.00000m  546.0000m  725.7036m 
  547.00000m  547.0000m  723.8151m 
  548.00000m  548.0000m  721.9188m 
  549.00000m  549.0000m  720.0147m 
  550.00000m  550.0000m  718.1027m 
  551.00000m  551.0000m  716.1828m 
  552.00000m  552.0000m  714.2550m 
  553.00000m  553.0000m  712.3190m 
  554.00000m  554.0000m  710.3750m 
  555.00000m  555.0000m  708.4229m 
  556.00000m  556.0000m  706.4625m 
  557.00000m  557.0000m  704.4939m 
  558.00000m  558.0000m  702.5170m 
  559.00000m  559.0000m  700.5317m 
  560.00000m  560.0000m  698.5380m 
  561.00000m  561.0000m  696.5357m 
  562.00000m  562.0000m  694.5250m 
  563.00000m  563.0000m  692.5056m 
  564.00000m  564.0000m  690.4775m 
  565.00000m  565.0000m  688.4406m 
  566.00000m  566.0000m  686.3949m 
  567.00000m  567.0000m  684.3403m 
  568.00000m  568.0000m  682.2768m 
  569.00000m  569.0000m  680.2042m 
  570.00000m  570.0000m  678.1224m 
  571.00000m  571.0000m  676.0315m 
  572.00000m  572.0000m  673.9313m 
  573.00000m  573.0000m  671.8218m 
  574.00000m  574.0000m  669.7028m 
  575.00000m  575.0000m  667.5744m 
  576.00000m  576.0000m  665.4363m 
  577.00000m  577.0000m  663.2885m 
  578.00000m  578.0000m  661.1310m 
  579.00000m  579.0000m  658.9636m 
  580.00000m  580.0000m  656.7863m 
  581.00000m  581.0000m  654.5990m 
  582.00000m  582.0000m  652.4015m 
  583.00000m  583.0000m  650.1938m 
  584.00000m  584.0000m  647.9758m 
  585.00000m  585.0000m  645.7473m 
  586.00000m  586.0000m  643.5084m 
  587.00000m  587.0000m  641.2588m 
  588.00000m  588.0000m  638.9986m 
  589.00000m  589.0000m  636.7275m 
  590.00000m  590.0000m  634.4455m 
  591.00000m  591.0000m  632.1525m 
  592.00000m  592.0000m  629.8484m 
  593.00000m  593.0000m  627.5331m 
  594.00000m  594.0000m  625.2064m 
  595.00000m  595.0000m  622.8682m 
  596.00000m  596.0000m  620.5185m 
  597.00000m  597.0000m  618.1571m 
  598.00000m  598.0000m  615.7840m 
  599.00000m  599.0000m  613.3989m 
  600.00000m  600.0000m  611.0019m 
  601.00000m  601.0000m  608.5927m 
  602.00000m  602.0000m  606.1713m 
  603.00000m  603.0000m  603.7376m 
  604.00000m  604.0000m  601.2914m 
  605.00000m  605.0000m  598.8326m 
  606.00000m  606.0000m  596.3611m 
  607.00000m  607.0000m  593.8768m 
  608.00000m  608.0000m  591.3796m 
  609.00000m  609.0000m  588.8694m 
  610.00000m  610.0000m  586.3461m 
  611.00000m  611.0000m  583.8095m 
  612.00000m  612.0000m  581.2595m 
  613.00000m  613.0000m  578.6962m 
  614.00000m  614.0000m  576.1192m 
  615.00000m  615.0000m  573.5286m 
  616.00000m  616.0000m  570.9243m 
  617.00000m  617.0000m  568.3061m 
  618.00000m  618.0000m  565.6741m 
  619.00000m  619.0000m  563.0280m 
  620.00000m  620.0000m  560.3678m 
  621.00000m  621.0000m  557.6935m 
  622.00000m  622.0000m  555.0050m 
  623.00000m  623.0000m  552.3022m 
  624.00000m  624.0000m  549.5851m 
  625.00000m  625.0000m  546.8537m 
  626.00000m  626.0000m  544.1079m 
  627.00000m  627.0000m  541.3477m 
  628.00000m  628.0000m  538.5732m 
  629.00000m  629.0000m  535.7842m 
  630.00000m  630.0000m  532.9809m 
  631.00000m  631.0000m  530.1633m 
  632.00000m  632.0000m  527.3314m 
  633.00000m  633.0000m  524.4852m 
  634.00000m  634.0000m  521.6250m 
  635.00000m  635.0000m  518.7508m 
  636.00000m  636.0000m  515.8627m 
  637.00000m  637.0000m  512.9608m 
  638.00000m  638.0000m  510.0454m 
  639.00000m  639.0000m  507.1167m 
  640.00000m  640.0000m  504.1748m 
  641.00000m  641.0000m  501.2200m 
  642.00000m  642.0000m  498.2526m 
  643.00000m  643.0000m  495.2729m 
  644.00000m  644.0000m  492.2813m 
  645.00000m  645.0000m  489.2780m 
  646.00000m  646.0000m  486.2635m 
  647.00000m  647.0000m  483.2383m 
  648.00000m  648.0000m  480.2028m 
  649.00000m  649.0000m  477.1575m 
  650.00000m  650.0000m  474.1029m 
  651.00000m  651.0000m  471.0397m 
  652.00000m  652.0000m  467.9683m 
  653.00000m  653.0000m  464.8896m 
  654.00000m  654.0000m  461.8041m 
  655.00000m  655.0000m  458.7126m 
  656.00000m  656.0000m  455.6158m 
  657.00000m  657.0000m  452.5145m 
  658.00000m  658.0000m  449.4096m 
  659.00000m  659.0000m  446.3019m 
  660.00000m  660.0000m  443.1923m 
  661.00000m  661.0000m  440.0816m 
  662.00000m  662.0000m  436.9710m 
  663.00000m  663.0000m  433.8612m 
  664.00000m  664.0000m  430.7534m 
  665.00000m  665.0000m  427.6486m 
  666.00000m  666.0000m  424.5478m 
  667.00000m  667.0000m  421.4520m 
  668.00000m  668.0000m  418.3625m 
  669.00000m  669.0000m  415.2802m 
  670.00000m  670.0000m  412.2063m 
  671.00000m  671.0000m  409.1419m 
  672.00000m  672.0000m  406.0882m 
  673.00000m  673.0000m  403.0463m 
  674.00000m  674.0000m  400.0173m 
  675.00000m  675.0000m  397.0024m 
  676.00000m  676.0000m  394.0028m 
  677.00000m  677.0000m  391.0195m 
  678.00000m  678.0000m  388.0538m 
  679.00000m  679.0000m  385.1068m 
  680.00000m  680.0000m  382.1795m 
  681.00000m  681.0000m  379.2731m 
  682.00000m  682.0000m  376.3887m 
  683.00000m  683.0000m  373.5273m 
  684.00000m  684.0000m  370.6901m 
  685.00000m  685.0000m  367.8780m 
  686.00000m  686.0000m  365.0920m 
  687.00000m  687.0000m  362.3332m 
  688.00000m  688.0000m  359.6024m 
  689.00000m  689.0000m  356.9007m 
  690.00000m  690.0000m  354.2288m 
  691.00000m  691.0000m  351.5876m 
  692.00000m  692.0000m  348.9778m 
  693.00000m  693.0000m  346.4004m 
  694.00000m  694.0000m  343.8559m 
  695.00000m  695.0000m  341.3451m 
  696.00000m  696.0000m  338.8684m 
  697.00000m  697.0000m  336.4266m 
  698.00000m  698.0000m  334.0200m 
  699.00000m  699.0000m  331.6492m 
  700.00000m  700.0000m  329.3145m 
  701.00000m  701.0000m  327.0162m 
  702.00000m  702.0000m  324.7546m 
  703.00000m  703.0000m  322.5300m 
  704.00000m  704.0000m  320.3423m 
  705.00000m  705.0000m  318.1919m 
  706.00000m  706.0000m  316.0785m 
  707.00000m  707.0000m  314.0023m 
  708.00000m  708.0000m  311.9631m 
  709.00000m  709.0000m  309.9608m 
  710.00000m  710.0000m  307.9951m 
  711.00000m  711.0000m  306.0658m 
  712.00000m  712.0000m  304.1727m 
  713.00000m  713.0000m  302.3153m 
  714.00000m  714.0000m  300.4932m 
  715.00000m  715.0000m  298.7061m 
  716.00000m  716.0000m  296.9535m 
  717.00000m  717.0000m  295.2348m 
  718.00000m  718.0000m  293.5495m 
  719.00000m  719.0000m  291.8971m 
  720.00000m  720.0000m  290.2770m 
  721.00000m  721.0000m  288.6886m 
  722.00000m  722.0000m  287.1312m 
  723.00000m  723.0000m  285.6044m 
  724.00000m  724.0000m  284.1073m 
  725.00000m  725.0000m  282.6395m 
  726.00000m  726.0000m  281.2002m 
  727.00000m  727.0000m  279.7888m 
  728.00000m  728.0000m  278.4047m 
  729.00000m  729.0000m  277.0472m 
  730.00000m  730.0000m  275.7157m 
  731.00000m  731.0000m  274.4095m 
  732.00000m  732.0000m  273.1280m 
  733.00000m  733.0000m  271.8706m 
  734.00000m  734.0000m  270.6368m 
  735.00000m  735.0000m  269.4258m 
  736.00000m  736.0000m  268.2371m 
  737.00000m  737.0000m  267.0702m 
  738.00000m  738.0000m  265.9245m 
  739.00000m  739.0000m  264.7993m 
  740.00000m  740.0000m  263.6943m 
  741.00000m  741.0000m  262.6089m 
  742.00000m  742.0000m  261.5425m 
  743.00000m  743.0000m  260.4946m 
  744.00000m  744.0000m  259.4649m 
  745.00000m  745.0000m  258.4527m 
  746.00000m  746.0000m  257.4577m 
  747.00000m  747.0000m  256.4794m 
  748.00000m  748.0000m  255.5174m 
  749.00000m  749.0000m  254.5713m 
  750.00000m  750.0000m  253.6406m 
  751.00000m  751.0000m  252.7250m 
  752.00000m  752.0000m  251.8241m 
  753.00000m  753.0000m  250.9374m 
  754.00000m  754.0000m  250.0648m 
  755.00000m  755.0000m  249.2057m 
  756.00000m  756.0000m  248.3599m 
  757.00000m  757.0000m  247.5271m 
  758.00000m  758.0000m  246.7069m 
  759.00000m  759.0000m  245.8990m 
  760.00000m  760.0000m  245.1031m 
  761.00000m  761.0000m  244.3190m 
  762.00000m  762.0000m  243.5464m 
  763.00000m  763.0000m  242.7849m 
  764.00000m  764.0000m  242.0343m 
  765.00000m  765.0000m  241.2945m 
  766.00000m  766.0000m  240.5651m 
  767.00000m  767.0000m  239.8458m 
  768.00000m  768.0000m  239.1365m 
  769.00000m  769.0000m  238.4370m 
  770.00000m  770.0000m  237.7470m 
  771.00000m  771.0000m  237.0663m 
  772.00000m  772.0000m  236.3947m 
  773.00000m  773.0000m  235.7320m 
  774.00000m  774.0000m  235.0780m 
  775.00000m  775.0000m  234.4326m 
  776.00000m  776.0000m  233.7955m 
  777.00000m  777.0000m  233.1666m 
  778.00000m  778.0000m  232.5456m 
  779.00000m  779.0000m  231.9326m 
  780.00000m  780.0000m  231.3271m 
  781.00000m  781.0000m  230.7293m 
  782.00000m  782.0000m  230.1387m 
  783.00000m  783.0000m  229.5554m 
  784.00000m  784.0000m  228.9792m 
  785.00000m  785.0000m  228.4099m 
  786.00000m  786.0000m  227.8474m 
  787.00000m  787.0000m  227.2916m 
  788.00000m  788.0000m  226.7423m 
  789.00000m  789.0000m  226.1995m 
  790.00000m  790.0000m  225.6629m 
  791.00000m  791.0000m  225.1325m 
  792.00000m  792.0000m  224.6082m 
  793.00000m  793.0000m  224.0898m 
  794.00000m  794.0000m  223.5773m 
  795.00000m  795.0000m  223.0705m 
  796.00000m  796.0000m  222.5693m 
  797.00000m  797.0000m  222.0736m 
  798.00000m  798.0000m  221.5834m 
  799.00000m  799.0000m  221.0986m 
  800.00000m  800.0000m  220.6189m 
  801.00000m  801.0000m  220.1444m 
  802.00000m  802.0000m  219.6750m 
  803.00000m  803.0000m  219.2106m 
  804.00000m  804.0000m  218.7510m 
  805.00000m  805.0000m  218.2962m 
  806.00000m  806.0000m  217.8462m 
  807.00000m  807.0000m  217.4008m 
  808.00000m  808.0000m  216.9600m 
  809.00000m  809.0000m  216.5237m 
  810.00000m  810.0000m  216.0918m 
  811.00000m  811.0000m  215.6643m 
  812.00000m  812.0000m  215.2411m 
  813.00000m  813.0000m  214.8220m 
  814.00000m  814.0000m  214.4072m 
  815.00000m  815.0000m  213.9964m 
  816.00000m  816.0000m  213.5896m 
  817.00000m  817.0000m  213.1867m 
  818.00000m  818.0000m  212.7878m 
  819.00000m  819.0000m  212.3927m 
  820.00000m  820.0000m  212.0014m 
  821.00000m  821.0000m  211.6138m 
  822.00000m  822.0000m  211.2299m 
  823.00000m  823.0000m  210.8496m 
  824.00000m  824.0000m  210.4728m 
  825.00000m  825.0000m  210.0996m 
  826.00000m  826.0000m  209.7298m 
  827.00000m  827.0000m  209.3634m 
  828.00000m  828.0000m  209.0003m 
  829.00000m  829.0000m  208.6406m 
  830.00000m  830.0000m  208.2841m 
  831.00000m  831.0000m  207.9309m 
  832.00000m  832.0000m  207.5808m 
  833.00000m  833.0000m  207.2338m 
  834.00000m  834.0000m  206.8900m 
  835.00000m  835.0000m  206.5491m 
  836.00000m  836.0000m  206.2113m 
  837.00000m  837.0000m  205.8764m 
  838.00000m  838.0000m  205.5444m 
  839.00000m  839.0000m  205.2153m 
  840.00000m  840.0000m  204.8891m 
  841.00000m  841.0000m  204.5656m 
  842.00000m  842.0000m  204.2450m 
  843.00000m  843.0000m  203.9270m 
  844.00000m  844.0000m  203.6117m 
  845.00000m  845.0000m  203.2991m 
  846.00000m  846.0000m  202.9891m 
  847.00000m  847.0000m  202.6817m 
  848.00000m  848.0000m  202.3769m 
  849.00000m  849.0000m  202.0746m 
  850.00000m  850.0000m  201.7748m 
  851.00000m  851.0000m  201.4774m 
  852.00000m  852.0000m  201.1825m 
  853.00000m  853.0000m  200.8899m 
  854.00000m  854.0000m  200.5998m 
  855.00000m  855.0000m  200.3119m 
  856.00000m  856.0000m  200.0264m 
  857.00000m  857.0000m  199.7432m 
  858.00000m  858.0000m  199.4622m 
  859.00000m  859.0000m  199.1835m 
  860.00000m  860.0000m  198.9069m 
  861.00000m  861.0000m  198.6326m 
  862.00000m  862.0000m  198.3604m 
  863.00000m  863.0000m  198.0903m 
  864.00000m  864.0000m  197.8223m 
  865.00000m  865.0000m  197.5564m 
  866.00000m  866.0000m  197.2925m 
  867.00000m  867.0000m  197.0307m 
  868.00000m  868.0000m  196.7709m 
  869.00000m  869.0000m  196.5130m 
  870.00000m  870.0000m  196.2572m 
  871.00000m  871.0000m  196.0032m 
  872.00000m  872.0000m  195.7512m 
  873.00000m  873.0000m  195.5010m 
  874.00000m  874.0000m  195.2528m 
  875.00000m  875.0000m  195.0064m 
  876.00000m  876.0000m  194.7618m 
  877.00000m  877.0000m  194.5190m 
  878.00000m  878.0000m  194.2781m 
  879.00000m  879.0000m  194.0389m 
  880.00000m  880.0000m  193.8014m 
  881.00000m  881.0000m  193.5657m 
  882.00000m  882.0000m  193.3317m 
  883.00000m  883.0000m  193.0994m 
  884.00000m  884.0000m  192.8688m 
  885.00000m  885.0000m  192.6398m 
  886.00000m  886.0000m  192.4125m 
  887.00000m  887.0000m  192.1868m 
  888.00000m  888.0000m  191.9627m 
  889.00000m  889.0000m  191.7402m 
  890.00000m  890.0000m  191.5193m 
  891.00000m  891.0000m  191.2999m 
  892.00000m  892.0000m  191.0821m 
  893.00000m  893.0000m  190.8658m 
  894.00000m  894.0000m  190.6511m 
  895.00000m  895.0000m  190.4378m 
  896.00000m  896.0000m  190.2260m 
  897.00000m  897.0000m  190.0157m 
  898.00000m  898.0000m  189.8068m 
  899.00000m  899.0000m  189.5994m 
  900.00000m  900.0000m  189.3934m 
  901.00000m  901.0000m  189.1888m 
  902.00000m  902.0000m  188.9856m 
  903.00000m  903.0000m  188.7837m 
  904.00000m  904.0000m  188.5833m 
  905.00000m  905.0000m  188.3842m 
  906.00000m  906.0000m  188.1864m 
  907.00000m  907.0000m  187.9900m 
  908.00000m  908.0000m  187.7949m 
  909.00000m  909.0000m  187.6011m 
  910.00000m  910.0000m  187.4086m 
  911.00000m  911.0000m  187.2173m 
  912.00000m  912.0000m  187.0274m 
  913.00000m  913.0000m  186.8387m 
  914.00000m  914.0000m  186.6512m 
  915.00000m  915.0000m  186.4650m 
  916.00000m  916.0000m  186.2799m 
  917.00000m  917.0000m  186.0961m 
  918.00000m  918.0000m  185.9135m 
  919.00000m  919.0000m  185.7321m 
  920.00000m  920.0000m  185.5518m 
  921.00000m  921.0000m  185.3728m 
  922.00000m  922.0000m  185.1948m 
  923.00000m  923.0000m  185.0181m 
  924.00000m  924.0000m  184.8424m 
  925.00000m  925.0000m  184.6679m 
  926.00000m  926.0000m  184.4945m 
  927.00000m  927.0000m  184.3222m 
  928.00000m  928.0000m  184.1510m 
  929.00000m  929.0000m  183.9808m 
  930.00000m  930.0000m  183.8118m 
  931.00000m  931.0000m  183.6438m 
  932.00000m  932.0000m  183.4769m 
  933.00000m  933.0000m  183.3110m 
  934.00000m  934.0000m  183.1461m 
  935.00000m  935.0000m  182.9823m 
  936.00000m  936.0000m  182.8195m 
  937.00000m  937.0000m  182.6577m 
  938.00000m  938.0000m  182.4969m 
  939.00000m  939.0000m  182.3371m 
  940.00000m  940.0000m  182.1783m 
  941.00000m  941.0000m  182.0205m 
  942.00000m  942.0000m  181.8636m 
  943.00000m  943.0000m  181.7077m 
  944.00000m  944.0000m  181.5528m 
  945.00000m  945.0000m  181.3988m 
  946.00000m  946.0000m  181.2457m 
  947.00000m  947.0000m  181.0936m 
  948.00000m  948.0000m  180.9423m 
  949.00000m  949.0000m  180.7920m 
  950.00000m  950.0000m  180.6426m 
  951.00000m  951.0000m  180.4941m 
  952.00000m  952.0000m  180.3465m 
  953.00000m  953.0000m  180.1998m 
  954.00000m  954.0000m  180.0539m 
  955.00000m  955.0000m  179.9090m 
  956.00000m  956.0000m  179.7648m 
  957.00000m  957.0000m  179.6216m 
  958.00000m  958.0000m  179.4792m 
  959.00000m  959.0000m  179.3376m 
  960.00000m  960.0000m  179.1969m 
  961.00000m  961.0000m  179.0569m 
  962.00000m  962.0000m  178.9179m 
  963.00000m  963.0000m  178.7796m 
  964.00000m  964.0000m  178.6421m 
  965.00000m  965.0000m  178.5055m 
  966.00000m  966.0000m  178.3696m 
  967.00000m  967.0000m  178.2345m 
  968.00000m  968.0000m  178.1002m 
  969.00000m  969.0000m  177.9667m 
  970.00000m  970.0000m  177.8340m 
  971.00000m  971.0000m  177.7020m 
  972.00000m  972.0000m  177.5708m 
  973.00000m  973.0000m  177.4404m 
  974.00000m  974.0000m  177.3106m 
  975.00000m  975.0000m  177.1817m 
  976.00000m  976.0000m  177.0534m 
  977.00000m  977.0000m  176.9260m 
  978.00000m  978.0000m  176.7992m 
  979.00000m  979.0000m  176.6731m 
  980.00000m  980.0000m  176.5478m 
  981.00000m  981.0000m  176.4232m 
  982.00000m  982.0000m  176.2993m 
  983.00000m  983.0000m  176.1760m 
  984.00000m  984.0000m  176.0535m 
  985.00000m  985.0000m  175.9317m 
  986.00000m  986.0000m  175.8105m 
  987.00000m  987.0000m  175.6900m 
  988.00000m  988.0000m  175.5702m 
  989.00000m  989.0000m  175.4511m 
  990.00000m  990.0000m  175.3327m 
  991.00000m  991.0000m  175.2148m 
  992.00000m  992.0000m  175.0977m 
  993.00000m  993.0000m  174.9812m 
  994.00000m  994.0000m  174.8653m 
  995.00000m  995.0000m  174.7501m 
  996.00000m  996.0000m  174.6355m 
  997.00000m  997.0000m  174.5216m 
  998.00000m  998.0000m  174.4083m 
  999.00000m  999.0000m  174.2956m 
    1.00000     1.0000   174.1835m 
y

          ***** job concluded
 ******  
 

 ****** job statistics summary tnom=  25.000 temp=  25.000 ******

  ******  Circuit Statistics  ******
  # nodes       =      12 # elements   =       4
  # resistors   =       0 # capacitors =       0 # inductors   =       0
  # mutual_inds =       0 # vccs       =       0 # vcvs        =       0
  # cccs        =       0 # ccvs       =       0 # volt_srcs   =       2
  # curr_srcs   =       0 # diodes     =       0 # bjts        =       0
  # jfets       =       0 # mosfets    =       2 # U elements  =       0
  # T elements  =       0 # W elements =       0 # B elements  =       0
  # S elements  =       0 # P elements =       0 # va device   =       0
  # vector_srcs =       0 # N elements =       0


  ******  Runtime Statistics (seconds)  ******

  analysis           time    # points   tot. iter  conv.iter
  op point           0.00           1           0
  dc sweep           0.04        1001        2009
  readin             0.01
  errchk             0.00
  setup              0.00
  output             0.00


           peak memory used         61.69 megabytes
           total cpu time            0.06 seconds
           total elapsed time        0.07 seconds
           job started at     18:20:08 10/29/2021
           job ended   at     18:20:08 10/29/2021


  lic: Release hspice token(s) 
 lic: total license checkout elapse time:        0.02(s)
