 ****** HSPICE -- O-2018.09-SP2 win64 (Feb 25 2019) ******                      
  Copyright (c) 1986 - 2021 by Synopsys, Inc. All Rights Reserved.              
  This software and the associated documentation are proprietary
  to Synopsys, Inc. This software may only be used in accordance
  with the terms and conditions of a written license agreement with
  Synopsys, Inc. All other use, reproduction, or distribution of
  this software is strictly prohibited.
  Input File: nand2delay.sp                                                     
  Command line options: C:\synopsys\Hspice_O-2018.09-SP2\WIN64\hspice.com -i nand2delay.sp -o C:\sdsy\task3\case1\nand2delay.lis
  Start time: Sun Nov 28 10:59:22 2021
  lic:  
  lic: FLEXlm: SDK_11.7.3 
  lic: USER:   admin                HOSTNAME: DESKTOP-3KO7170 
  lic: HOSTID: "d83bbfb49802"       PID:      22648 
  lic: Using FLEXlm license file: 
  lic: 27000@DESKTOP-3KO7170 
  lic: Checkout 1 hspice 
  lic: License/Maintenance for hspice will expire on 30-dec-2029/2019.2019 
  lic: 1(in_use)/99(total) FLOATING license(s) on SERVER 27000@DESKTOP-3KO7170 
  lic:   
  **info** (nand2delay.sp:13) DC voltage reset to initial transient source value in source 0:v2. new dc=0.0000D+00
  
      

Element variations(Local):   element              parameter
 **info** set option symb=1 internally to help for convergence.
 *****************************************************************
 ******  option summary
 ******
 runlvl  = 3         bypass  = 2.0000    
 **info** dc convergence successful at Newton-Raphson method 
1****** HSPICE -- O-2018.09-SP2 win64 (Feb 25 2019) ******                      
 ******  
 

 ****** operating point information tnom=  25.000 temp=  25.000 ******
 ****** operating point status is voltage   simulation time is     0.     
    node    =voltage      node    =voltage      node    =voltage

 +0:vdd     =   1.0000  0:vina    =   1.0000  0:vinb    =   0.     
 +0:vm0d    = 889.8381m 0:vm4d    =  38.9423u 0:vout    = 999.9674m
 +0:vout2   =  76.1042u

 ******
 

 ****** transient analysis tnom=  25.000 temp=  25.000 ******
 thl=  10.0427n
 tlh=  30.0390n

          ***** job concluded
 ******  
 

 ****** job statistics summary tnom=  25.000 temp=  25.000 ******

  ******  HSPICE Threads Information  ******

  Command Line Threads Count :     1
  Available CPU Count        :     8
  Actual Threads Count       :     1


  ******  Circuit Statistics  ******
  # nodes       =      40 # elements   =      11
  # resistors   =       0 # capacitors =       0 # inductors   =       0
  # mutual_inds =       0 # vccs       =       0 # vcvs        =       0
  # cccs        =       0 # ccvs       =       0 # volt_srcs   =       3
  # curr_srcs   =       0 # diodes     =       0 # bjts        =       0
  # jfets       =       0 # mosfets    =       8 # U elements  =       0
  # T elements  =       0 # W elements =       0 # B elements  =       0
  # S elements  =       0 # P elements =       0 # va device   =       0
  # vector_srcs =       0 # N elements =       0


  ******  Runtime Statistics (seconds)  ******

  analysis           time    # points   tot. iter  conv.iter
  op point           0.00           1          15
  transient          0.00        4001         202          84 rev=         2
  readin             0.01
  errchk             0.00
  setup              0.00
  output             0.00


           peak memory used         61.58 megabytes
           total cpu time            0.02 seconds
           total elapsed time        0.04 seconds
           job started at     10:59:22 11/28/2021
           job ended   at     10:59:22 11/28/2021


  **info** (nand2delay.sp:27) DC voltage reset to initial transient source value in source 0:v1. new dc=0.0000D+00
  
      

Element variations(Local):   element              parameter
 **info** set option symb=1 internally to help for convergence.
 *****************************************************************
 ******  option summary
 ******
 runlvl  = 3         bypass  = 2.0000    
 **info** dc convergence successful at Newton-Raphson method 
 ******  
 

 ****** operating point information tnom=  25.000 temp=  25.000 ******
 ****** operating point status is voltage   simulation time is     0.     
    node    =voltage      node    =voltage      node    =voltage

 +0:vdd     =   1.0000  0:vina    =   0.      0:vinb    =   1.0000 
 +0:vm0d    =   3.8201u 0:vm4d    =  38.9424u 0:vout    = 999.9667m
 +0:vout2   =  76.1043u

 ******
 

 ****** transient analysis tnom=  25.000 temp=  25.000 ******
 thl=  10.0385n
 tlh=  30.0354n

          ***** job concluded
 ******  
 

 ****** job statistics summary tnom=  25.000 temp=  25.000 ******

  ******  Circuit Statistics  ******
  # nodes       =      40 # elements   =      11
  # resistors   =       0 # capacitors =       0 # inductors   =       0
  # mutual_inds =       0 # vccs       =       0 # vcvs        =       0
  # cccs        =       0 # ccvs       =       0 # volt_srcs   =       3
  # curr_srcs   =       0 # diodes     =       0 # bjts        =       0
  # jfets       =       0 # mosfets    =       8 # U elements  =       0
  # T elements  =       0 # W elements =       0 # B elements  =       0
  # S elements  =       0 # P elements =       0 # va device   =       0
  # vector_srcs =       0 # N elements =       0


  ******  Runtime Statistics (seconds)  ******

  analysis           time    # points   tot. iter  conv.iter
  op point           0.00           1           5
  transient          0.00        4001         192          81 rev=         4
  readin             0.01
  errchk             0.00
  setup              0.00
  output             0.00


           peak memory used         61.58 megabytes
           total cpu time            0.01 seconds
           total elapsed time        0.02 seconds
           job started at     10:59:22 11/28/2021
           job ended   at     10:59:22 11/28/2021


  lic: Release hspice token(s) 
 lic: total license checkout elapse time:        0.02(s)
